@<TRIPOS>MOLECULE
[5-(7,8-dimethyl-2,4-dioxo-benzo[g]pteridin-10-yl)-2,3,4-trihydroxy-pentyl] phosphate
   50    52     1     0     0
SMALL
USER_CHARGES

@<TRIPOS>ATOM
      1 N1          1.2277   -6.1042    3.2212 N.2       1 FMN        -0.6988
      2 C2          2.0186   -7.2293    3.3119 C.ar      1 FMN         0.8536
      3 O2          1.7830   -8.1102    4.1421 O.2       1 FMN        -0.6019
      4 N3          3.1050   -7.3794    2.4494 N.pl3     1 FMN        -0.6223
      5 C4          3.4932   -6.4908    1.4752 C.ar      1 FMN         0.6334
      6 O4          4.4350   -6.5937    0.7081 O.2       1 FMN        -0.6125
      7 C4A         2.6001   -5.2945    1.4253 C.ar      1 FMN         0.2211
      8 N5          2.8818   -4.3956    0.5389 N.2       1 FMN        -0.4286
      9 C5A         2.0834   -3.2454    0.4374 C.ar      1 FMN         0.0170
     10 C6          2.4298   -2.2996   -0.5398 C.ar      1 FMN        -0.0553
     11 C7          1.6851   -1.1351   -0.6992 C.ar      1 FMN        -0.1211
     12 C7M         2.0850   -0.1527   -1.7495 C.3       1 FMN        -0.0435
     13 C8          0.5864   -0.9067    0.1183 C.ar      1 FMN        -0.0173
     14 C8M        -0.2342    0.3332   -0.0271 C.3       1 FMN        -0.0630
     15 C9          0.2330   -1.8421    1.0943 C.ar      1 FMN        -0.1390
     16 C9A         0.9704   -3.0274    1.2749 C.ar      1 FMN         0.1887
     17 N10         0.6547   -4.0033    2.2457 N.pl3     1 FMN        -0.5294
     18 C10         1.4328   -5.1491    2.3626 C.ar      1 FMN         0.6151
     19 C1'        -0.5012   -3.7679    3.1095 C.3       1 FMN         0.1741
     20 C2'        -0.0563   -3.0138    4.3619 C.3       1 FMN         0.1411
     21 O2'         0.9124   -3.8026    5.0539 O.3       1 FMN        -0.6334
     22 C3'        -1.2361   -2.7121    5.3074 C.3       1 FMN         0.1067
     23 O3'        -1.8444   -3.9349    5.7206 O.3       1 FMN        -0.6301
     24 C4'        -2.3128   -1.8195    4.6617 C.3       1 FMN         0.0813
     25 O4'        -1.7238   -0.5733    4.2849 O.3       1 FMN        -0.6796
     26 C5'        -3.4799   -1.5386    5.6072 C.3       1 FMN         0.1813
     27 O5'        -4.4250   -0.7115    4.9357 O.3       1 FMN        -0.5642
     28 P          -5.7905   -0.2579    5.7424 P.3       1 FMN         1.3127
     29 O1P        -6.4943   -1.5681    6.0834 O.co2     1 FMN        -0.9243
     30 O2P        -6.5355    0.5986    4.7230 O.co2     1 FMN        -0.9243
     31 O3P        -5.2862    0.5194    6.9547 O.co2     1 FMN        -0.9243
     32 HN3         3.6607   -8.2239    2.5509 H         1 FMN         0.3334
     33 H6          3.2920   -2.4807   -1.1791 H         1 FMN         0.1447
     34 HM71        1.5822   -0.3820   -2.6964 H         1 FMN         0.0392
     35 HM72        1.8243    0.8717   -1.4550 H         1 FMN         0.0392
     36 HM73        3.1694   -0.1698   -1.9170 H         1 FMN         0.0392
     37 HM81       -1.0476    0.1680   -0.7429 H         1 FMN         0.0535
     38 HM82       -0.6692    0.6350    0.9334 H         1 FMN         0.0535
     39 HM83        0.3769    1.1733   -0.3794 H         1 FMN         0.0535
     40 H9         -0.6349   -1.6256    1.7128 H         1 FMN         0.1971
     41 H1'1       -0.9287   -4.7387    3.3617 H         1 FMN         0.1123
     42 H1'2       -1.2289   -3.2002    2.5315 H         1 FMN         0.1123
     43 H2'         0.4300   -2.0775    4.0623 H         1 FMN         0.0570
     44 HO2'        1.1692   -3.2943    5.8378 H         1 FMN         0.4322
     45 H3'        -0.8688   -2.1976    6.2046 H         1 FMN         0.0570
     46 HO3'       -1.1568   -4.4430    6.1773 H         1 FMN         0.4323
     47 H4'        -2.6904   -2.2854    3.7442 H         1 FMN         0.0270
     48 HO4'       -2.4322   -0.0468    3.8857 H         1 FMN         0.4672
     49 H5'1       -3.9932   -2.4614    5.8961 H         1 FMN         0.0181
     50 H5'2       -3.1414   -1.0089    6.5030 H         1 FMN         0.0181
@<TRIPOS>BOND
     1    1    2 ar
     2    1   18 ar
     3    2    3 2
     4    2    4 ar
     5    4    5 ar
     6    4   32 1
     7    5    6 2
     8    5    7 ar
     9    7    8 ar
    10    7   18 ar
    11    8    9 ar
    12    9   10 ar
    13    9   16 ar
    14   10   11 ar
    15   10   33 1
    16   11   12 1
    17   11   13 ar
    18   12   34 1
    19   12   35 1
    20   12   36 1
    21   13   14 1
    22   13   15 ar
    23   14   37 1
    24   14   38 1
    25   14   39 1
    26   15   16 ar
    27   15   40 1
    28   16   17 ar
    29   17   18 ar
    30   17   19 1
    31   19   20 1
    32   19   41 1
    33   19   42 1
    34   20   21 1
    35   20   22 1
    36   20   43 1
    37   21   44 1
    38   22   23 1
    39   22   24 1
    40   22   45 1
    41   23   46 1
    42   24   25 1
    43   24   26 1
    44   24   47 1
    45   25   48 1
    46   26   27 1
    47   26   49 1
    48   26   50 1
    49   27   28 1
    50   28   29 2
    51   28   30 1
    52   28   31 1
@<TRIPOS>SUBSTRUCTURE
     1 FMN         1 GROUP 0 A     ****
@<TRIPOS>MOLECULE
[5-(7,8-dimethyl-2,4-dioxo-benzo[g]pteridin-10-yl)-2,3,4-trihydroxy-pentyl] phosphate
   50    52     1     0     0
SMALL
USER_CHARGES

@<TRIPOS>ATOM
      1 N1          1.2277   -6.1042    3.2212 N.2       1 FMN        -0.6988
      2 C2          2.0186   -7.2293    3.3119 C.ar      1 FMN         0.8536
      3 O2          1.7830   -8.1102    4.1421 O.2       1 FMN        -0.6019
      4 N3          3.1050   -7.3794    2.4494 N.pl3     1 FMN        -0.6223
      5 C4          3.4932   -6.4908    1.4752 C.ar      1 FMN         0.6334
      6 O4          4.4350   -6.5937    0.7081 O.2       1 FMN        -0.6125
      7 C4A         2.6001   -5.2945    1.4253 C.ar      1 FMN         0.2211
      8 N5          2.8818   -4.3956    0.5389 N.2       1 FMN        -0.4286
      9 C5A         2.0834   -3.2454    0.4374 C.ar      1 FMN         0.0170
     10 C6          2.4298   -2.2996   -0.5398 C.ar      1 FMN        -0.0553
     11 C7          1.6851   -1.1351   -0.6992 C.ar      1 FMN        -0.1211
     12 C7M         2.0850   -0.1527   -1.7495 C.3       1 FMN        -0.0435
     13 C8          0.5864   -0.9067    0.1183 C.ar      1 FMN        -0.0173
     14 C8M        -0.2342    0.3332   -0.0271 C.3       1 FMN        -0.0630
     15 C9          0.2330   -1.8421    1.0943 C.ar      1 FMN        -0.1390
     16 C9A         0.9704   -3.0274    1.2749 C.ar      1 FMN         0.1887
     17 N10         0.6547   -4.0033    2.2457 N.pl3     1 FMN        -0.5294
     18 C10         1.4328   -5.1491    2.3626 C.ar      1 FMN         0.6151
     19 C1'        -0.5012   -3.7679    3.1095 C.3       1 FMN         0.1741
     20 C2'        -0.0563   -3.0138    4.3619 C.3       1 FMN         0.1411
     21 O2'         0.5241   -3.9440    5.2770 O.3       1 FMN        -0.6334
     22 C3'        -1.2298   -2.2882    5.0499 C.3       1 FMN         0.1067
     23 O3'        -1.8059   -1.3450    4.1474 O.3       1 FMN        -0.6301
     24 C4'        -0.8109   -1.5485    6.3346 C.3       1 FMN         0.0813
     25 O4'        -1.9562   -0.9088    6.9012 O.3       1 FMN        -0.6796
     26 C5'         0.2581   -0.4882    6.0738 C.3       1 FMN         0.1813
     27 O5'         0.5865    0.1446    7.3067 O.3       1 FMN        -0.5642
     28 P           1.7253    1.3380    7.3024 P.3       1 FMN         1.3127
     29 O1P         2.9929    0.6644    6.7851 O.co2     1 FMN        -0.9243
     30 O2P         1.8011    1.7598    8.7668 O.co2     1 FMN        -0.9243
     31 O3P         1.1606    2.4115    6.3766 O.co2     1 FMN        -0.9243
     32 HN3         3.6607   -8.2239    2.5509 H         1 FMN         0.3334
     33 H6          3.2920   -2.4807   -1.1791 H         1 FMN         0.1447
     34 HM71        1.5822   -0.3820   -2.6964 H         1 FMN         0.0392
     35 HM72        1.8243    0.8717   -1.4550 H         1 FMN         0.0392
     36 HM73        3.1694   -0.1698   -1.9170 H         1 FMN         0.0392
     37 HM81       -1.0476    0.1680   -0.7429 H         1 FMN         0.0535
     38 HM82       -0.6692    0.6350    0.9334 H         1 FMN         0.0535
     39 HM83        0.3769    1.1733   -0.3794 H         1 FMN         0.0535
     40 H9         -0.6349   -1.6256    1.7128 H         1 FMN         0.1971
     41 H1'1       -0.9287   -4.7387    3.3617 H         1 FMN         0.1123
     42 H1'2       -1.2289   -3.2002    2.5315 H         1 FMN         0.1123
     43 H2'         0.7199   -2.2895    4.0870 H         1 FMN         0.0570
     44 HO2'        1.2793   -4.3426    4.8192 H         1 FMN         0.4322
     45 H3'        -2.0066   -3.0149    5.3203 H         1 FMN         0.0570
     46 HO3'       -2.5341   -0.9183    4.6241 H         1 FMN         0.4323
     47 H4'        -0.4422   -2.2629    7.0797 H         1 FMN         0.0270
     48 HO4'       -1.6486   -0.4587    7.7019 H         1 FMN         0.4672
     49 H5'1        1.1753   -0.9329    5.6746 H         1 FMN         0.0181
     50 H5'2       -0.1093    0.2794    5.3857 H         1 FMN         0.0181
@<TRIPOS>BOND
     1    1    2 ar
     2    1   18 ar
     3    2    3 2
     4    2    4 ar
     5    4    5 ar
     6    4   32 1
     7    5    6 2
     8    5    7 ar
     9    7    8 ar
    10    7   18 ar
    11    8    9 ar
    12    9   10 ar
    13    9   16 ar
    14   10   11 ar
    15   10   33 1
    16   11   12 1
    17   11   13 ar
    18   12   34 1
    19   12   35 1
    20   12   36 1
    21   13   14 1
    22   13   15 ar
    23   14   37 1
    24   14   38 1
    25   14   39 1
    26   15   16 ar
    27   15   40 1
    28   16   17 ar
    29   17   18 ar
    30   17   19 1
    31   19   20 1
    32   19   41 1
    33   19   42 1
    34   20   21 1
    35   20   22 1
    36   20   43 1
    37   21   44 1
    38   22   23 1
    39   22   24 1
    40   22   45 1
    41   23   46 1
    42   24   25 1
    43   24   26 1
    44   24   47 1
    45   25   48 1
    46   26   27 1
    47   26   49 1
    48   26   50 1
    49   27   28 1
    50   28   29 2
    51   28   30 1
    52   28   31 1
@<TRIPOS>SUBSTRUCTURE
     1 FMN         1 GROUP 0 A     ****
@<TRIPOS>MOLECULE
[5-(7,8-dimethyl-2,4-dioxo-benzo[g]pteridin-10-yl)-2,3,4-trihydroxy-pentyl] phosphate
   50    52     1     0     0
SMALL
USER_CHARGES

@<TRIPOS>ATOM
      1 N1          1.2277   -6.1042    3.2212 N.2       1 FMN        -0.6988
      2 C2          2.0186   -7.2293    3.3119 C.ar      1 FMN         0.8536
      3 O2          1.7830   -8.1102    4.1421 O.2       1 FMN        -0.6019
      4 N3          3.1050   -7.3794    2.4494 N.pl3     1 FMN        -0.6223
      5 C4          3.4932   -6.4908    1.4752 C.ar      1 FMN         0.6334
      6 O4          4.4350   -6.5937    0.7081 O.2       1 FMN        -0.6125
      7 C4A         2.6001   -5.2945    1.4253 C.ar      1 FMN         0.2211
      8 N5          2.8818   -4.3956    0.5389 N.2       1 FMN        -0.4286
      9 C5A         2.0834   -3.2454    0.4374 C.ar      1 FMN         0.0170
     10 C6          2.4298   -2.2996   -0.5398 C.ar      1 FMN        -0.0553
     11 C7          1.6851   -1.1351   -0.6992 C.ar      1 FMN        -0.1211
     12 C7M         2.0850   -0.1527   -1.7495 C.3       1 FMN        -0.0435
     13 C8          0.5864   -0.9067    0.1183 C.ar      1 FMN        -0.0173
     14 C8M        -0.2342    0.3332   -0.0271 C.3       1 FMN        -0.0630
     15 C9          0.2330   -1.8421    1.0943 C.ar      1 FMN        -0.1390
     16 C9A         0.9704   -3.0274    1.2749 C.ar      1 FMN         0.1887
     17 N10         0.6547   -4.0033    2.2457 N.pl3     1 FMN        -0.5294
     18 C10         1.4328   -5.1491    2.3626 C.ar      1 FMN         0.6151
     19 C1'        -0.5012   -3.7679    3.1095 C.3       1 FMN         0.1741
     20 C2'        -0.0563   -3.0138    4.3619 C.3       1 FMN         0.1411
     21 O2'         0.5241   -3.9440    5.2770 O.3       1 FMN        -0.6334
     22 C3'        -1.2298   -2.2882    5.0499 C.3       1 FMN         0.1067
     23 O3'        -1.8059   -1.3450    4.1474 O.3       1 FMN        -0.6301
     24 C4'        -0.8109   -1.5485    6.3346 C.3       1 FMN         0.0813
     25 O4'        -0.2736   -2.4917    7.2640 O.3       1 FMN        -0.6796
     26 C5'        -1.9821   -0.8258    6.9986 C.3       1 FMN         0.1813
     27 O5'        -1.5109   -0.1715    8.1726 O.3       1 FMN        -0.5642
     28 P          -2.5854    0.6884    9.0820 P.3       1 FMN         1.3127
     29 O1P        -3.1152    1.7671    8.1418 O.co2     1 FMN        -0.9243
     30 O2P        -1.7299    1.2277   10.2244 O.co2     1 FMN        -0.9243
     31 O3P        -3.6307   -0.3336    9.5193 O.co2     1 FMN        -0.9243
     32 HN3         3.6607   -8.2239    2.5509 H         1 FMN         0.3334
     33 H6          3.2920   -2.4807   -1.1791 H         1 FMN         0.1447
     34 HM71        1.5822   -0.3820   -2.6964 H         1 FMN         0.0392
     35 HM72        1.8243    0.8717   -1.4550 H         1 FMN         0.0392
     36 HM73        3.1694   -0.1698   -1.9170 H         1 FMN         0.0392
     37 HM81       -1.0476    0.1680   -0.7429 H         1 FMN         0.0535
     38 HM82       -0.6692    0.6350    0.9334 H         1 FMN         0.0535
     39 HM83        0.3769    1.1733   -0.3794 H         1 FMN         0.0535
     40 H9         -0.6349   -1.6256    1.7128 H         1 FMN         0.1971
     41 H1'1       -0.9287   -4.7387    3.3617 H         1 FMN         0.1123
     42 H1'2       -1.2289   -3.2002    2.5315 H         1 FMN         0.1123
     43 H2'         0.7199   -2.2895    4.0870 H         1 FMN         0.0570
     44 HO2'        1.2793   -4.3426    4.8192 H         1 FMN         0.4322
     45 H3'        -2.0066   -3.0149    5.3203 H         1 FMN         0.0570
     46 HO3'       -1.1015   -0.7206    3.9162 H         1 FMN         0.4323
     47 H4'        -0.0150   -0.8277    6.1141 H         1 FMN         0.0270
     48 HO4'       -0.0249   -1.9862    8.0520 H         1 FMN         0.4672
     49 H5'1       -2.4066   -0.0609    6.3404 H         1 FMN         0.0181
     50 H5'2       -2.7634   -1.5327    7.2944 H         1 FMN         0.0181
@<TRIPOS>BOND
     1    1    2 ar
     2    1   18 ar
     3    2    3 2
     4    2    4 ar
     5    4    5 ar
     6    4   32 1
     7    5    6 2
     8    5    7 ar
     9    7    8 ar
    10    7   18 ar
    11    8    9 ar
    12    9   10 ar
    13    9   16 ar
    14   10   11 ar
    15   10   33 1
    16   11   12 1
    17   11   13 ar
    18   12   34 1
    19   12   35 1
    20   12   36 1
    21   13   14 1
    22   13   15 ar
    23   14   37 1
    24   14   38 1
    25   14   39 1
    26   15   16 ar
    27   15   40 1
    28   16   17 ar
    29   17   18 ar
    30   17   19 1
    31   19   20 1
    32   19   41 1
    33   19   42 1
    34   20   21 1
    35   20   22 1
    36   20   43 1
    37   21   44 1
    38   22   23 1
    39   22   24 1
    40   22   45 1
    41   23   46 1
    42   24   25 1
    43   24   26 1
    44   24   47 1
    45   25   48 1
    46   26   27 1
    47   26   49 1
    48   26   50 1
    49   27   28 1
    50   28   29 2
    51   28   30 1
    52   28   31 1
@<TRIPOS>SUBSTRUCTURE
     1 FMN         1 GROUP 0 A     ****
@<TRIPOS>MOLECULE
[5-(7,8-dimethyl-2,4-dioxo-benzo[g]pteridin-10-yl)-2,3,4-trihydroxy-pentyl] phosphate
   50    52     1     0     0
SMALL
USER_CHARGES

@<TRIPOS>ATOM
      1 N1          1.2277   -6.1042    3.2212 N.2       1 FMN        -0.6988
      2 C2          2.0186   -7.2293    3.3119 C.ar      1 FMN         0.8536
      3 O2          1.7830   -8.1102    4.1421 O.2       1 FMN        -0.6019
      4 N3          3.1050   -7.3794    2.4494 N.pl3     1 FMN        -0.6223
      5 C4          3.4932   -6.4908    1.4752 C.ar      1 FMN         0.6334
      6 O4          4.4350   -6.5937    0.7081 O.2       1 FMN        -0.6125
      7 C4A         2.6001   -5.2945    1.4253 C.ar      1 FMN         0.2211
      8 N5          2.8818   -4.3956    0.5389 N.2       1 FMN        -0.4286
      9 C5A         2.0834   -3.2454    0.4374 C.ar      1 FMN         0.0170
     10 C6          2.4298   -2.2996   -0.5398 C.ar      1 FMN        -0.0553
     11 C7          1.6851   -1.1351   -0.6992 C.ar      1 FMN        -0.1211
     12 C7M         2.0850   -0.1527   -1.7495 C.3       1 FMN        -0.0435
     13 C8          0.5864   -0.9067    0.1183 C.ar      1 FMN        -0.0173
     14 C8M        -0.2342    0.3332   -0.0271 C.3       1 FMN        -0.0630
     15 C9          0.2330   -1.8421    1.0943 C.ar      1 FMN        -0.1390
     16 C9A         0.9704   -3.0274    1.2749 C.ar      1 FMN         0.1887
     17 N10         0.6547   -4.0033    2.2457 N.pl3     1 FMN        -0.5294
     18 C10         1.4328   -5.1491    2.3626 C.ar      1 FMN         0.6151
     19 C1'        -0.5012   -3.7679    3.1095 C.3       1 FMN         0.1741
     20 C2'        -0.0563   -3.0138    4.3619 C.3       1 FMN         0.1411
     21 O2'         0.5241   -3.9440    5.2770 O.3       1 FMN        -0.6334
     22 C3'        -1.2298   -2.2882    5.0499 C.3       1 FMN         0.1067
     23 O3'        -0.7254   -1.2573    5.8978 O.3       1 FMN        -0.6301
     24 C4'        -2.1112   -3.2308    5.8911 C.3       1 FMN         0.0813
     25 O4'        -2.6585   -4.2418    5.0422 O.3       1 FMN        -0.6796
     26 C5'        -3.2628   -2.4953    6.5749 C.3       1 FMN         0.1813
     27 O5'        -4.0240   -3.4346    7.3277 O.3       1 FMN        -0.5642
     28 P          -5.3356   -2.8938    8.1692 P.3       1 FMN         1.3127
     29 O1P        -4.7727   -1.8722    9.1529 O.co2     1 FMN        -0.9243
     30 O2P        -5.8772   -4.1577    8.8306 O.co2     1 FMN        -0.9243
     31 O3P        -6.2614   -2.3033    7.1097 O.co2     1 FMN        -0.9243
     32 HN3         3.6607   -8.2239    2.5509 H         1 FMN         0.3334
     33 H6          3.2920   -2.4807   -1.1791 H         1 FMN         0.1447
     34 HM71        1.5822   -0.3820   -2.6964 H         1 FMN         0.0392
     35 HM72        1.8243    0.8717   -1.4550 H         1 FMN         0.0392
     36 HM73        3.1694   -0.1698   -1.9170 H         1 FMN         0.0392
     37 HM81       -1.0476    0.1680   -0.7429 H         1 FMN         0.0535
     38 HM82       -0.6692    0.6350    0.9334 H         1 FMN         0.0535
     39 HM83        0.3769    1.1733   -0.3794 H         1 FMN         0.0535
     40 H9         -0.6349   -1.6256    1.7128 H         1 FMN         0.1971
     41 H1'1       -0.9287   -4.7387    3.3617 H         1 FMN         0.1123
     42 H1'2       -1.2289   -3.2002    2.5315 H         1 FMN         0.1123
     43 H2'         0.7199   -2.2895    4.0870 H         1 FMN         0.0570
     44 HO2'        0.7926   -3.4314    6.0542 H         1 FMN         0.4322
     45 H3'        -1.8700   -1.8189    4.2920 H         1 FMN         0.0570
     46 HO3'       -0.2306   -0.6499    5.3269 H         1 FMN         0.4323
     47 H4'        -1.5044   -3.7420    6.6473 H         1 FMN         0.0270
     48 HO4'       -3.2023   -4.8085    5.6092 H         1 FMN         0.4672
     49 H5'1       -2.8958   -1.7331    7.2697 H         1 FMN         0.0181
     50 H5'2       -3.9270   -2.0333    5.8379 H         1 FMN         0.0181
@<TRIPOS>BOND
     1    1    2 ar
     2    1   18 ar
     3    2    3 2
     4    2    4 ar
     5    4    5 ar
     6    4   32 1
     7    5    6 2
     8    5    7 ar
     9    7    8 ar
    10    7   18 ar
    11    8    9 ar
    12    9   10 ar
    13    9   16 ar
    14   10   11 ar
    15   10   33 1
    16   11   12 1
    17   11   13 ar
    18   12   34 1
    19   12   35 1
    20   12   36 1
    21   13   14 1
    22   13   15 ar
    23   14   37 1
    24   14   38 1
    25   14   39 1
    26   15   16 ar
    27   15   40 1
    28   16   17 ar
    29   17   18 ar
    30   17   19 1
    31   19   20 1
    32   19   41 1
    33   19   42 1
    34   20   21 1
    35   20   22 1
    36   20   43 1
    37   21   44 1
    38   22   23 1
    39   22   24 1
    40   22   45 1
    41   23   46 1
    42   24   25 1
    43   24   26 1
    44   24   47 1
    45   25   48 1
    46   26   27 1
    47   26   49 1
    48   26   50 1
    49   27   28 1
    50   28   29 2
    51   28   30 1
    52   28   31 1
@<TRIPOS>SUBSTRUCTURE
     1 FMN         1 GROUP 0 A     ****
@<TRIPOS>MOLECULE
[5-(7,8-dimethyl-2,4-dioxo-benzo[g]pteridin-10-yl)-2,3,4-trihydroxy-pentyl] phosphate
   50    52     1     0     0
SMALL
USER_CHARGES

@<TRIPOS>ATOM
      1 N1          1.2277   -6.1042    3.2212 N.2       1 FMN        -0.6988
      2 C2          2.0186   -7.2293    3.3119 C.ar      1 FMN         0.8536
      3 O2          1.7830   -8.1102    4.1421 O.2       1 FMN        -0.6019
      4 N3          3.1050   -7.3794    2.4494 N.pl3     1 FMN        -0.6223
      5 C4          3.4932   -6.4908    1.4752 C.ar      1 FMN         0.6334
      6 O4          4.4350   -6.5937    0.7081 O.2       1 FMN        -0.6125
      7 C4A         2.6001   -5.2945    1.4253 C.ar      1 FMN         0.2211
      8 N5          2.8818   -4.3956    0.5389 N.2       1 FMN        -0.4286
      9 C5A         2.0834   -3.2454    0.4374 C.ar      1 FMN         0.0170
     10 C6          2.4298   -2.2996   -0.5398 C.ar      1 FMN        -0.0553
     11 C7          1.6851   -1.1351   -0.6992 C.ar      1 FMN        -0.1211
     12 C7M         2.0850   -0.1527   -1.7495 C.3       1 FMN        -0.0435
     13 C8          0.5864   -0.9067    0.1183 C.ar      1 FMN        -0.0173
     14 C8M        -0.2342    0.3332   -0.0271 C.3       1 FMN        -0.0630
     15 C9          0.2330   -1.8421    1.0943 C.ar      1 FMN        -0.1390
     16 C9A         0.9704   -3.0274    1.2749 C.ar      1 FMN         0.1887
     17 N10         0.6547   -4.0033    2.2457 N.pl3     1 FMN        -0.5294
     18 C10         1.4328   -5.1491    2.3626 C.ar      1 FMN         0.6151
     19 C1'        -0.5012   -3.7679    3.1095 C.3       1 FMN         0.1741
     20 C2'        -0.0563   -3.0138    4.3619 C.3       1 FMN         0.1411
     21 O2'         0.9124   -3.8026    5.0539 O.3       1 FMN        -0.6334
     22 C3'        -1.2361   -2.7121    5.3074 C.3       1 FMN         0.1067
     23 O3'        -2.1140   -3.8360    5.3527 O.3       1 FMN        -0.6301
     24 C4'        -2.0453   -1.4714    4.8845 C.3       1 FMN         0.0813
     25 O4'        -1.1849   -0.3304    4.8798 O.3       1 FMN        -0.6796
     26 C5'        -3.2169   -1.1921    5.8249 C.3       1 FMN         0.1813
     27 O5'        -2.7089   -0.9706    7.1369 O.3       1 FMN        -0.5642
     28 P          -3.6510   -1.3803    8.4274 P.3       1 FMN         1.3127
     29 O1P        -4.9084   -0.5291    8.2770 O.co2     1 FMN        -0.9243
     30 O2P        -2.7883   -1.0045    9.6285 O.co2     1 FMN        -0.9243
     31 O3P        -3.8853   -2.8806    8.2777 O.co2     1 FMN        -0.9243
     32 HN3         3.6607   -8.2239    2.5509 H         1 FMN         0.3334
     33 H6          3.2920   -2.4807   -1.1791 H         1 FMN         0.1447
     34 HM71        1.5822   -0.3820   -2.6964 H         1 FMN         0.0392
     35 HM72        1.8243    0.8717   -1.4550 H         1 FMN         0.0392
     36 HM73        3.1694   -0.1698   -1.9170 H         1 FMN         0.0392
     37 HM81       -1.0476    0.1680   -0.7429 H         1 FMN         0.0535
     38 HM82       -0.6692    0.6350    0.9334 H         1 FMN         0.0535
     39 HM83        0.3769    1.1733   -0.3794 H         1 FMN         0.0535
     40 H9         -0.6349   -1.6256    1.7128 H         1 FMN         0.1971
     41 H1'1       -0.9287   -4.7387    3.3617 H         1 FMN         0.1123
     42 H1'2       -1.2289   -3.2002    2.5315 H         1 FMN         0.1123
     43 H2'         0.4300   -2.0775    4.0623 H         1 FMN         0.0570
     44 HO2'        0.4737   -4.6359    5.2820 H         1 FMN         0.4322
     45 H3'        -0.8602   -2.5361    6.3235 H         1 FMN         0.0570
     46 HO3'       -1.5891   -4.5813    5.6821 H         1 FMN         0.4323
     47 H4'        -2.4195   -1.5941    3.8616 H         1 FMN         0.0270
     48 HO4'       -1.7319    0.4221    4.6098 H         1 FMN         0.4672
     49 H5'1       -3.7659   -0.2934    5.5258 H         1 FMN         0.0181
     50 H5'2       -3.9006   -2.0456    5.8653 H         1 FMN         0.0181
@<TRIPOS>BOND
     1    1    2 ar
     2    1   18 ar
     3    2    3 2
     4    2    4 ar
     5    4    5 ar
     6    4   32 1
     7    5    6 2
     8    5    7 ar
     9    7    8 ar
    10    7   18 ar
    11    8    9 ar
    12    9   10 ar
    13    9   16 ar
    14   10   11 ar
    15   10   33 1
    16   11   12 1
    17   11   13 ar
    18   12   34 1
    19   12   35 1
    20   12   36 1
    21   13   14 1
    22   13   15 ar
    23   14   37 1
    24   14   38 1
    25   14   39 1
    26   15   16 ar
    27   15   40 1
    28   16   17 ar
    29   17   18 ar
    30   17   19 1
    31   19   20 1
    32   19   41 1
    33   19   42 1
    34   20   21 1
    35   20   22 1
    36   20   43 1
    37   21   44 1
    38   22   23 1
    39   22   24 1
    40   22   45 1
    41   23   46 1
    42   24   25 1
    43   24   26 1
    44   24   47 1
    45   25   48 1
    46   26   27 1
    47   26   49 1
    48   26   50 1
    49   27   28 1
    50   28   29 2
    51   28   30 1
    52   28   31 1
@<TRIPOS>SUBSTRUCTURE
     1 FMN         1 GROUP 0 A     ****
@<TRIPOS>MOLECULE
[5-(7,8-dimethyl-2,4-dioxo-benzo[g]pteridin-10-yl)-2,3,4-trihydroxy-pentyl] phosphate
   50    52     1     0     0
SMALL
USER_CHARGES

@<TRIPOS>ATOM
      1 N1          1.2277   -6.1042    3.2212 N.2       1 FMN        -0.6988
      2 C2          2.0186   -7.2293    3.3119 C.ar      1 FMN         0.8536
      3 O2          1.7830   -8.1102    4.1421 O.2       1 FMN        -0.6019
      4 N3          3.1050   -7.3794    2.4494 N.pl3     1 FMN        -0.6223
      5 C4          3.4932   -6.4908    1.4752 C.ar      1 FMN         0.6334
      6 O4          4.4350   -6.5937    0.7081 O.2       1 FMN        -0.6125
      7 C4A         2.6001   -5.2945    1.4253 C.ar      1 FMN         0.2211
      8 N5          2.8818   -4.3956    0.5389 N.2       1 FMN        -0.4286
      9 C5A         2.0834   -3.2454    0.4374 C.ar      1 FMN         0.0170
     10 C6          2.4298   -2.2996   -0.5398 C.ar      1 FMN        -0.0553
     11 C7          1.6851   -1.1351   -0.6992 C.ar      1 FMN        -0.1211
     12 C7M         2.0850   -0.1527   -1.7495 C.3       1 FMN        -0.0435
     13 C8          0.5864   -0.9067    0.1183 C.ar      1 FMN        -0.0173
     14 C8M        -0.2342    0.3332   -0.0271 C.3       1 FMN        -0.0630
     15 C9          0.2330   -1.8421    1.0943 C.ar      1 FMN        -0.1390
     16 C9A         0.9704   -3.0274    1.2749 C.ar      1 FMN         0.1887
     17 N10         0.6547   -4.0033    2.2457 N.pl3     1 FMN        -0.5294
     18 C10         1.4328   -5.1491    2.3626 C.ar      1 FMN         0.6151
     19 C1'        -0.5012   -3.7679    3.1095 C.3       1 FMN         0.1741
     20 C2'        -1.7519   -4.3580    2.4592 C.3       1 FMN         0.1411
     21 O2'        -2.2248   -3.4496    1.4638 O.3       1 FMN        -0.6334
     22 C3'        -2.8727   -4.6164    3.4857 C.3       1 FMN         0.1067
     23 O3'        -2.9224   -3.5412    4.4226 O.3       1 FMN        -0.6301
     24 C4'        -2.6891   -5.9359    4.2592 C.3       1 FMN         0.0813
     25 O4'        -2.6835   -7.0244    3.3334 O.3       1 FMN        -0.6796
     26 C5'        -3.8015   -6.1722    5.2797 C.3       1 FMN         0.1813
     27 O5'        -3.5568   -7.4065    5.9470 O.3       1 FMN        -0.5642
     28 P          -4.6196   -7.9003    7.1078 P.3       1 FMN         1.3127
     29 O1P        -4.5836   -6.7982    8.1625 O.co2     1 FMN        -0.9243
     30 O2P        -4.0361   -9.2288    7.5796 O.co2     1 FMN        -0.9243
     31 O3P        -5.9551   -8.0328    6.3818 O.co2     1 FMN        -0.9243
     32 HN3         3.6607   -8.2239    2.5509 H         1 FMN         0.3334
     33 H6          3.2920   -2.4807   -1.1791 H         1 FMN         0.1447
     34 HM71        1.5822   -0.3820   -2.6964 H         1 FMN         0.0392
     35 HM72        1.8243    0.8717   -1.4550 H         1 FMN         0.0392
     36 HM73        3.1694   -0.1698   -1.9170 H         1 FMN         0.0392
     37 HM81       -1.0476    0.1680   -0.7429 H         1 FMN         0.0535
     38 HM82       -0.6692    0.6350    0.9334 H         1 FMN         0.0535
     39 HM83        0.3769    1.1733   -0.3794 H         1 FMN         0.0535
     40 H9         -0.6349   -1.6256    1.7128 H         1 FMN         0.1971
     41 H1'1       -0.5966   -2.6906    3.2480 H         1 FMN         0.1123
     42 H1'2       -0.2877   -4.2309    4.0717 H         1 FMN         0.1123
     43 H2'        -1.4853   -5.2946    1.9549 H         1 FMN         0.0570
     44 HO2'       -3.0142   -3.8561    1.0759 H         1 FMN         0.4322
     45 H3'        -3.8416   -4.6616    2.9720 H         1 FMN         0.0570
     46 HO3'       -3.1018   -2.7385    3.9099 H         1 FMN         0.4323
     47 H4'        -1.7186   -5.9442    4.7687 H         1 FMN         0.0270
     48 HO4'       -2.5664   -7.8291    3.8598 H         1 FMN         0.4672
     49 H5'1       -3.8238   -5.3837    6.0387 H         1 FMN         0.0181
     50 H5'2       -4.7774   -6.2395    4.7890 H         1 FMN         0.0181
@<TRIPOS>BOND
     1    1    2 ar
     2    1   18 ar
     3    2    3 2
     4    2    4 ar
     5    4    5 ar
     6    4   32 1
     7    5    6 2
     8    5    7 ar
     9    7    8 ar
    10    7   18 ar
    11    8    9 ar
    12    9   10 ar
    13    9   16 ar
    14   10   11 ar
    15   10   33 1
    16   11   12 1
    17   11   13 ar
    18   12   34 1
    19   12   35 1
    20   12   36 1
    21   13   14 1
    22   13   15 ar
    23   14   37 1
    24   14   38 1
    25   14   39 1
    26   15   16 ar
    27   15   40 1
    28   16   17 ar
    29   17   18 ar
    30   17   19 1
    31   19   20 1
    32   19   41 1
    33   19   42 1
    34   20   21 1
    35   20   22 1
    36   20   43 1
    37   21   44 1
    38   22   23 1
    39   22   24 1
    40   22   45 1
    41   23   46 1
    42   24   25 1
    43   24   26 1
    44   24   47 1
    45   25   48 1
    46   26   27 1
    47   26   49 1
    48   26   50 1
    49   27   28 1
    50   28   29 2
    51   28   30 1
    52   28   31 1
@<TRIPOS>SUBSTRUCTURE
     1 FMN         1 GROUP 0 A     ****
@<TRIPOS>MOLECULE
[5-(7,8-dimethyl-2,4-dioxo-benzo[g]pteridin-10-yl)-2,3,4-trihydroxy-pentyl] phosphate
   50    52     1     0     0
SMALL
USER_CHARGES

@<TRIPOS>ATOM
      1 N1          1.2277   -6.1042    3.2212 N.2       1 FMN        -0.6988
      2 C2          2.0186   -7.2293    3.3119 C.ar      1 FMN         0.8536
      3 O2          1.7830   -8.1102    4.1421 O.2       1 FMN        -0.6019
      4 N3          3.1050   -7.3794    2.4494 N.pl3     1 FMN        -0.6223
      5 C4          3.4932   -6.4908    1.4752 C.ar      1 FMN         0.6334
      6 O4          4.4350   -6.5937    0.7081 O.2       1 FMN        -0.6125
      7 C4A         2.6001   -5.2945    1.4253 C.ar      1 FMN         0.2211
      8 N5          2.8818   -4.3956    0.5389 N.2       1 FMN        -0.4286
      9 C5A         2.0834   -3.2454    0.4374 C.ar      1 FMN         0.0170
     10 C6          2.4298   -2.2996   -0.5398 C.ar      1 FMN        -0.0553
     11 C7          1.6851   -1.1351   -0.6992 C.ar      1 FMN        -0.1211
     12 C7M         2.0850   -0.1527   -1.7495 C.3       1 FMN        -0.0435
     13 C8          0.5864   -0.9067    0.1183 C.ar      1 FMN        -0.0173
     14 C8M        -0.2342    0.3332   -0.0271 C.3       1 FMN        -0.0630
     15 C9          0.2330   -1.8421    1.0943 C.ar      1 FMN        -0.1390
     16 C9A         0.9704   -3.0274    1.2749 C.ar      1 FMN         0.1887
     17 N10         0.6547   -4.0033    2.2457 N.pl3     1 FMN        -0.5294
     18 C10         1.4328   -5.1491    2.3626 C.ar      1 FMN         0.6151
     19 C1'        -0.5012   -3.7679    3.1095 C.3       1 FMN         0.1741
     20 C2'        -0.0563   -3.0138    4.3619 C.3       1 FMN         0.1411
     21 O2'         0.5241   -3.9440    5.2770 O.3       1 FMN        -0.6334
     22 C3'        -1.2298   -2.2882    5.0499 C.3       1 FMN         0.1067
     23 O3'        -2.3910   -3.1167    5.0179 O.3       1 FMN        -0.6301
     24 C4'        -1.5705   -0.9367    4.3939 C.3       1 FMN         0.0813
     25 O4'        -0.4271   -0.0821    4.4610 O.3       1 FMN        -0.6796
     26 C5'        -2.7419   -0.2353    5.0800 C.3       1 FMN         0.1813
     27 O5'        -2.9898    0.9996    4.4152 O.3       1 FMN        -0.5642
     28 P          -4.4705    1.2438    3.7304 P.3       1 FMN         1.3127
     29 O1P        -4.6073    0.1333    2.6929 O.co2     1 FMN        -0.9243
     30 O2P        -4.3565    2.6419    3.1302 O.co2     1 FMN        -0.9243
     31 O3P        -5.4568    1.1458    4.8906 O.co2     1 FMN        -0.9243
     32 HN3         3.6607   -8.2239    2.5509 H         1 FMN         0.3334
     33 H6          3.2920   -2.4807   -1.1791 H         1 FMN         0.1447
     34 HM71        1.5822   -0.3820   -2.6964 H         1 FMN         0.0392
     35 HM72        1.8243    0.8717   -1.4550 H         1 FMN         0.0392
     36 HM73        3.1694   -0.1698   -1.9170 H         1 FMN         0.0392
     37 HM81       -1.0476    0.1680   -0.7429 H         1 FMN         0.0535
     38 HM82       -0.6692    0.6350    0.9334 H         1 FMN         0.0535
     39 HM83        0.3769    1.1733   -0.3794 H         1 FMN         0.0535
     40 H9         -0.6349   -1.6256    1.7128 H         1 FMN         0.1971
     41 H1'1       -0.9287   -4.7387    3.3617 H         1 FMN         0.1123
     42 H1'2       -1.2289   -3.2002    2.5315 H         1 FMN         0.1123
     43 H2'         0.7199   -2.2895    4.0870 H         1 FMN         0.0570
     44 HO2'        0.7926   -3.4314    6.0542 H         1 FMN         0.4322
     45 H3'        -0.9806   -2.0963    6.1015 H         1 FMN         0.0570
     46 HO3'       -2.1613   -3.9298    5.4930 H         1 FMN         0.4323
     47 H4'        -1.8016   -1.0789    3.3319 H         1 FMN         0.0270
     48 HO4'       -0.2236    0.0271    5.4017 H         1 FMN         0.4672
     49 H5'1       -3.6572   -0.8329    5.0217 H         1 FMN         0.0181
     50 H5'2       -2.5104   -0.0164    6.1270 H         1 FMN         0.0181
@<TRIPOS>BOND
     1    1    2 ar
     2    1   18 ar
     3    2    3 2
     4    2    4 ar
     5    4    5 ar
     6    4   32 1
     7    5    6 2
     8    5    7 ar
     9    7    8 ar
    10    7   18 ar
    11    8    9 ar
    12    9   10 ar
    13    9   16 ar
    14   10   11 ar
    15   10   33 1
    16   11   12 1
    17   11   13 ar
    18   12   34 1
    19   12   35 1
    20   12   36 1
    21   13   14 1
    22   13   15 ar
    23   14   37 1
    24   14   38 1
    25   14   39 1
    26   15   16 ar
    27   15   40 1
    28   16   17 ar
    29   17   18 ar
    30   17   19 1
    31   19   20 1
    32   19   41 1
    33   19   42 1
    34   20   21 1
    35   20   22 1
    36   20   43 1
    37   21   44 1
    38   22   23 1
    39   22   24 1
    40   22   45 1
    41   23   46 1
    42   24   25 1
    43   24   26 1
    44   24   47 1
    45   25   48 1
    46   26   27 1
    47   26   49 1
    48   26   50 1
    49   27   28 1
    50   28   29 2
    51   28   30 1
    52   28   31 1
@<TRIPOS>SUBSTRUCTURE
     1 FMN         1 GROUP 0 A     ****
@<TRIPOS>MOLECULE
[5-(7,8-dimethyl-2,4-dioxo-benzo[g]pteridin-10-yl)-2,3,4-trihydroxy-pentyl] phosphate
   50    52     1     0     0
SMALL
USER_CHARGES

@<TRIPOS>ATOM
      1 N1          1.2277   -6.1042    3.2212 N.2       1 FMN        -0.6988
      2 C2          2.0186   -7.2293    3.3119 C.ar      1 FMN         0.8536
      3 O2          1.7830   -8.1102    4.1421 O.2       1 FMN        -0.6019
      4 N3          3.1050   -7.3794    2.4494 N.pl3     1 FMN        -0.6223
      5 C4          3.4932   -6.4908    1.4752 C.ar      1 FMN         0.6334
      6 O4          4.4350   -6.5937    0.7081 O.2       1 FMN        -0.6125
      7 C4A         2.6001   -5.2945    1.4253 C.ar      1 FMN         0.2211
      8 N5          2.8818   -4.3956    0.5389 N.2       1 FMN        -0.4286
      9 C5A         2.0834   -3.2454    0.4374 C.ar      1 FMN         0.0170
     10 C6          2.4298   -2.2996   -0.5398 C.ar      1 FMN        -0.0553
     11 C7          1.6851   -1.1351   -0.6992 C.ar      1 FMN        -0.1211
     12 C7M         2.0850   -0.1527   -1.7495 C.3       1 FMN        -0.0435
     13 C8          0.5864   -0.9067    0.1183 C.ar      1 FMN        -0.0173
     14 C8M        -0.2342    0.3332   -0.0271 C.3       1 FMN        -0.0630
     15 C9          0.2330   -1.8421    1.0943 C.ar      1 FMN        -0.1390
     16 C9A         0.9704   -3.0274    1.2749 C.ar      1 FMN         0.1887
     17 N10         0.6547   -4.0033    2.2457 N.pl3     1 FMN        -0.5294
     18 C10         1.4328   -5.1491    2.3626 C.ar      1 FMN         0.6151
     19 C1'        -0.5012   -3.7679    3.1095 C.3       1 FMN         0.1741
     20 C2'        -0.0563   -3.0138    4.3619 C.3       1 FMN         0.1411
     21 O2'         0.9124   -3.8026    5.0539 O.3       1 FMN        -0.6334
     22 C3'        -1.2361   -2.7121    5.3074 C.3       1 FMN         0.1067
     23 O3'        -2.2019   -1.9106    4.6286 O.3       1 FMN        -0.6301
     24 C4'        -0.8059   -1.9817    6.5937 C.3       1 FMN         0.0813
     25 O4'         0.1282   -2.7965    7.3048 O.3       1 FMN        -0.6796
     26 C5'        -1.9872   -1.6804    7.5149 C.3       1 FMN         0.1813
     27 O5'        -2.6069   -2.9089    7.8824 O.3       1 FMN        -0.5642
     28 P          -4.2258   -2.9124    8.1991 P.3       1 FMN         1.3127
     29 O1P        -4.3952   -1.9493    9.3704 O.co2     1 FMN        -0.9243
     30 O2P        -4.5148   -4.3694    8.5479 O.co2     1 FMN        -0.9243
     31 O3P        -4.8773   -2.4448    6.9009 O.co2     1 FMN        -0.9243
     32 HN3         3.6607   -8.2239    2.5509 H         1 FMN         0.3334
     33 H6          3.2920   -2.4807   -1.1791 H         1 FMN         0.1447
     34 HM71        1.5822   -0.3820   -2.6964 H         1 FMN         0.0392
     35 HM72        1.8243    0.8717   -1.4550 H         1 FMN         0.0392
     36 HM73        3.1694   -0.1698   -1.9170 H         1 FMN         0.0392
     37 HM81       -1.0476    0.1680   -0.7429 H         1 FMN         0.0535
     38 HM82       -0.6692    0.6350    0.9334 H         1 FMN         0.0535
     39 HM83        0.3769    1.1733   -0.3794 H         1 FMN         0.0535
     40 H9         -0.6349   -1.6256    1.7128 H         1 FMN         0.1971
     41 H1'1       -0.9287   -4.7387    3.3617 H         1 FMN         0.1123
     42 H1'2       -1.2289   -3.2002    2.5315 H         1 FMN         0.1123
     43 H2'         0.4300   -2.0775    4.0623 H         1 FMN         0.0570
     44 HO2'        0.4737   -4.6359    5.2820 H         1 FMN         0.4322
     45 H3'        -1.7231   -3.6504    5.6023 H         1 FMN         0.0570
     46 HO3'       -1.7484   -1.0938    4.3707 H         1 FMN         0.4323
     47 H4'        -0.2901   -1.0473    6.3440 H         1 FMN         0.0270
     48 HO4'        0.3702   -2.3015    8.1015 H         1 FMN         0.4672
     49 H5'1       -1.6619   -1.1847    8.4353 H         1 FMN         0.0181
     50 H5'2       -2.7339   -1.0622    7.0072 H         1 FMN         0.0181
@<TRIPOS>BOND
     1    1    2 ar
     2    1   18 ar
     3    2    3 2
     4    2    4 ar
     5    4    5 ar
     6    4   32 1
     7    5    6 2
     8    5    7 ar
     9    7    8 ar
    10    7   18 ar
    11    8    9 ar
    12    9   10 ar
    13    9   16 ar
    14   10   11 ar
    15   10   33 1
    16   11   12 1
    17   11   13 ar
    18   12   34 1
    19   12   35 1
    20   12   36 1
    21   13   14 1
    22   13   15 ar
    23   14   37 1
    24   14   38 1
    25   14   39 1
    26   15   16 ar
    27   15   40 1
    28   16   17 ar
    29   17   18 ar
    30   17   19 1
    31   19   20 1
    32   19   41 1
    33   19   42 1
    34   20   21 1
    35   20   22 1
    36   20   43 1
    37   21   44 1
    38   22   23 1
    39   22   24 1
    40   22   45 1
    41   23   46 1
    42   24   25 1
    43   24   26 1
    44   24   47 1
    45   25   48 1
    46   26   27 1
    47   26   49 1
    48   26   50 1
    49   27   28 1
    50   28   29 2
    51   28   30 1
    52   28   31 1
@<TRIPOS>SUBSTRUCTURE
     1 FMN         1 GROUP 0 A     ****
@<TRIPOS>MOLECULE
[5-(7,8-dimethyl-2,4-dioxo-benzo[g]pteridin-10-yl)-2,3,4-trihydroxy-pentyl] phosphate
   50    52     1     0     0
SMALL
USER_CHARGES

@<TRIPOS>ATOM
      1 N1          1.2277   -6.1042    3.2212 N.2       1 FMN        -0.6988
      2 C2          2.0186   -7.2293    3.3119 C.ar      1 FMN         0.8536
      3 O2          1.7830   -8.1102    4.1421 O.2       1 FMN        -0.6019
      4 N3          3.1050   -7.3794    2.4494 N.pl3     1 FMN        -0.6223
      5 C4          3.4932   -6.4908    1.4752 C.ar      1 FMN         0.6334
      6 O4          4.4350   -6.5937    0.7081 O.2       1 FMN        -0.6125
      7 C4A         2.6001   -5.2945    1.4253 C.ar      1 FMN         0.2211
      8 N5          2.8818   -4.3956    0.5389 N.2       1 FMN        -0.4286
      9 C5A         2.0834   -3.2454    0.4374 C.ar      1 FMN         0.0170
     10 C6          2.4298   -2.2996   -0.5398 C.ar      1 FMN        -0.0553
     11 C7          1.6851   -1.1351   -0.6992 C.ar      1 FMN        -0.1211
     12 C7M         2.0850   -0.1527   -1.7495 C.3       1 FMN        -0.0435
     13 C8          0.5864   -0.9067    0.1183 C.ar      1 FMN        -0.0173
     14 C8M        -0.2342    0.3332   -0.0271 C.3       1 FMN        -0.0630
     15 C9          0.2330   -1.8421    1.0943 C.ar      1 FMN        -0.1390
     16 C9A         0.9704   -3.0274    1.2749 C.ar      1 FMN         0.1887
     17 N10         0.6547   -4.0033    2.2457 N.pl3     1 FMN        -0.5294
     18 C10         1.4328   -5.1491    2.3626 C.ar      1 FMN         0.6151
     19 C1'        -0.5012   -3.7679    3.1095 C.3       1 FMN         0.1741
     20 C2'        -0.0563   -3.0138    4.3619 C.3       1 FMN         0.1411
     21 O2'         0.5241   -3.9440    5.2770 O.3       1 FMN        -0.6334
     22 C3'        -1.2298   -2.2882    5.0499 C.3       1 FMN         0.1067
     23 O3'        -0.7254   -1.2573    5.8978 O.3       1 FMN        -0.6301
     24 C4'        -2.1112   -3.2308    5.8911 C.3       1 FMN         0.0813
     25 O4'        -2.6585   -4.2418    5.0422 O.3       1 FMN        -0.6796
     26 C5'        -3.2628   -2.4953    6.5749 C.3       1 FMN         0.1813
     27 O5'        -4.0783   -1.8910    5.5758 O.3       1 FMN        -0.5642
     28 P          -4.8811   -0.4988    5.9481 P.3       1 FMN         1.3127
     29 O1P        -5.7923   -0.8747    7.1128 O.co2     1 FMN        -0.9243
     30 O2P        -5.6275   -0.1656    4.6597 O.co2     1 FMN        -0.9243
     31 O3P        -3.7837    0.4997    6.3046 O.co2     1 FMN        -0.9243
     32 HN3         3.6607   -8.2239    2.5509 H         1 FMN         0.3334
     33 H6          3.2920   -2.4807   -1.1791 H         1 FMN         0.1447
     34 HM71        1.5822   -0.3820   -2.6964 H         1 FMN         0.0392
     35 HM72        1.8243    0.8717   -1.4550 H         1 FMN         0.0392
     36 HM73        3.1694   -0.1698   -1.9170 H         1 FMN         0.0392
     37 HM81       -1.0476    0.1680   -0.7429 H         1 FMN         0.0535
     38 HM82       -0.6692    0.6350    0.9334 H         1 FMN         0.0535
     39 HM83        0.3769    1.1733   -0.3794 H         1 FMN         0.0535
     40 H9         -0.6349   -1.6256    1.7128 H         1 FMN         0.1971
     41 H1'1       -0.9287   -4.7387    3.3617 H         1 FMN         0.1123
     42 H1'2       -1.2289   -3.2002    2.5315 H         1 FMN         0.1123
     43 H2'         0.7199   -2.2895    4.0870 H         1 FMN         0.0570
     44 HO2'        1.2793   -4.3426    4.8192 H         1 FMN         0.4322
     45 H3'        -1.8700   -1.8189    4.2920 H         1 FMN         0.0570
     46 HO3'       -0.2306   -0.6499    5.3269 H         1 FMN         0.4323
     47 H4'        -1.5044   -3.7420    6.6473 H         1 FMN         0.0270
     48 HO4'       -3.2023   -4.8085    5.6092 H         1 FMN         0.4672
     49 H5'1       -3.8941   -3.1825    7.1473 H         1 FMN         0.0181
     50 H5'2       -2.8889   -1.7040    7.2319 H         1 FMN         0.0181
@<TRIPOS>BOND
     1    1    2 ar
     2    1   18 ar
     3    2    3 2
     4    2    4 ar
     5    4    5 ar
     6    4   32 1
     7    5    6 2
     8    5    7 ar
     9    7    8 ar
    10    7   18 ar
    11    8    9 ar
    12    9   10 ar
    13    9   16 ar
    14   10   11 ar
    15   10   33 1
    16   11   12 1
    17   11   13 ar
    18   12   34 1
    19   12   35 1
    20   12   36 1
    21   13   14 1
    22   13   15 ar
    23   14   37 1
    24   14   38 1
    25   14   39 1
    26   15   16 ar
    27   15   40 1
    28   16   17 ar
    29   17   18 ar
    30   17   19 1
    31   19   20 1
    32   19   41 1
    33   19   42 1
    34   20   21 1
    35   20   22 1
    36   20   43 1
    37   21   44 1
    38   22   23 1
    39   22   24 1
    40   22   45 1
    41   23   46 1
    42   24   25 1
    43   24   26 1
    44   24   47 1
    45   25   48 1
    46   26   27 1
    47   26   49 1
    48   26   50 1
    49   27   28 1
    50   28   29 2
    51   28   30 1
    52   28   31 1
@<TRIPOS>SUBSTRUCTURE
     1 FMN         1 GROUP 0 A     ****
@<TRIPOS>MOLECULE
[5-(7,8-dimethyl-2,4-dioxo-benzo[g]pteridin-10-yl)-2,3,4-trihydroxy-pentyl] phosphate
   50    52     1     0     0
SMALL
USER_CHARGES

@<TRIPOS>ATOM
      1 N1          1.2277   -6.1042    3.2212 N.2       1 FMN        -0.6988
      2 C2          2.0186   -7.2293    3.3119 C.ar      1 FMN         0.8536
      3 O2          1.7830   -8.1102    4.1421 O.2       1 FMN        -0.6019
      4 N3          3.1050   -7.3794    2.4494 N.pl3     1 FMN        -0.6223
      5 C4          3.4932   -6.4908    1.4752 C.ar      1 FMN         0.6334
      6 O4          4.4350   -6.5937    0.7081 O.2       1 FMN        -0.6125
      7 C4A         2.6001   -5.2945    1.4253 C.ar      1 FMN         0.2211
      8 N5          2.8818   -4.3956    0.5389 N.2       1 FMN        -0.4286
      9 C5A         2.0834   -3.2454    0.4374 C.ar      1 FMN         0.0170
     10 C6          2.4298   -2.2996   -0.5398 C.ar      1 FMN        -0.0553
     11 C7          1.6851   -1.1351   -0.6992 C.ar      1 FMN        -0.1211
     12 C7M         2.0850   -0.1527   -1.7495 C.3       1 FMN        -0.0435
     13 C8          0.5864   -0.9067    0.1183 C.ar      1 FMN        -0.0173
     14 C8M        -0.2342    0.3332   -0.0271 C.3       1 FMN        -0.0630
     15 C9          0.2330   -1.8421    1.0943 C.ar      1 FMN        -0.1390
     16 C9A         0.9704   -3.0274    1.2749 C.ar      1 FMN         0.1887
     17 N10         0.6547   -4.0033    2.2457 N.pl3     1 FMN        -0.5294
     18 C10         1.4328   -5.1491    2.3626 C.ar      1 FMN         0.6151
     19 C1'        -0.5012   -3.7679    3.1095 C.3       1 FMN         0.1741
     20 C2'        -0.0563   -3.0138    4.3619 C.3       1 FMN         0.1411
     21 O2'         0.5241   -3.9440    5.2770 O.3       1 FMN        -0.6334
     22 C3'        -1.2298   -2.2882    5.0499 C.3       1 FMN         0.1067
     23 O3'        -1.8059   -1.3450    4.1474 O.3       1 FMN        -0.6301
     24 C4'        -0.8109   -1.5485    6.3346 C.3       1 FMN         0.0813
     25 O4'         0.4594   -0.9284    6.1249 O.3       1 FMN        -0.6796
     26 C5'        -0.7013   -2.4856    7.5366 C.3       1 FMN         0.1813
     27 O5'        -0.7767   -1.7115    8.7297 O.3       1 FMN        -0.5642
     28 P          -0.6827   -2.4885   10.1818 P.3       1 FMN         1.3127
     29 O1P        -1.8686   -3.4486   10.1868 O.co2     1 FMN        -0.9243
     30 O2P        -0.7981   -1.3556   11.1972 O.co2     1 FMN        -0.9243
     31 O3P         0.6810   -3.1731   10.1692 O.co2     1 FMN        -0.9243
     32 HN3         3.6607   -8.2239    2.5509 H         1 FMN         0.3334
     33 H6          3.2920   -2.4807   -1.1791 H         1 FMN         0.1447
     34 HM71        1.5822   -0.3820   -2.6964 H         1 FMN         0.0392
     35 HM72        1.8243    0.8717   -1.4550 H         1 FMN         0.0392
     36 HM73        3.1694   -0.1698   -1.9170 H         1 FMN         0.0392
     37 HM81       -1.0476    0.1680   -0.7429 H         1 FMN         0.0535
     38 HM82       -0.6692    0.6350    0.9334 H         1 FMN         0.0535
     39 HM83        0.3769    1.1733   -0.3794 H         1 FMN         0.0535
     40 H9         -0.6349   -1.6256    1.7128 H         1 FMN         0.1971
     41 H1'1       -0.9287   -4.7387    3.3617 H         1 FMN         0.1123
     42 H1'2       -1.2289   -3.2002    2.5315 H         1 FMN         0.1123
     43 H2'         0.7199   -2.2895    4.0870 H         1 FMN         0.0570
     44 HO2'        1.2793   -4.3426    4.8192 H         1 FMN         0.4322
     45 H3'        -2.0066   -3.0149    5.3203 H         1 FMN         0.0570
     46 HO3'       -1.1015   -0.7206    3.9162 H         1 FMN         0.4323
     47 H4'        -1.5245   -0.7476    6.5601 H         1 FMN         0.0270
     48 HO4'        0.6825   -0.4777    6.9528 H         1 FMN         0.4672
     49 H5'1       -1.5230   -3.2086    7.5579 H         1 FMN         0.0181
     50 H5'2        0.2563   -3.0155    7.5359 H         1 FMN         0.0181
@<TRIPOS>BOND
     1    1    2 ar
     2    1   18 ar
     3    2    3 2
     4    2    4 ar
     5    4    5 ar
     6    4   32 1
     7    5    6 2
     8    5    7 ar
     9    7    8 ar
    10    7   18 ar
    11    8    9 ar
    12    9   10 ar
    13    9   16 ar
    14   10   11 ar
    15   10   33 1
    16   11   12 1
    17   11   13 ar
    18   12   34 1
    19   12   35 1
    20   12   36 1
    21   13   14 1
    22   13   15 ar
    23   14   37 1
    24   14   38 1
    25   14   39 1
    26   15   16 ar
    27   15   40 1
    28   16   17 ar
    29   17   18 ar
    30   17   19 1
    31   19   20 1
    32   19   41 1
    33   19   42 1
    34   20   21 1
    35   20   22 1
    36   20   43 1
    37   21   44 1
    38   22   23 1
    39   22   24 1
    40   22   45 1
    41   23   46 1
    42   24   25 1
    43   24   26 1
    44   24   47 1
    45   25   48 1
    46   26   27 1
    47   26   49 1
    48   26   50 1
    49   27   28 1
    50   28   29 2
    51   28   30 1
    52   28   31 1
@<TRIPOS>SUBSTRUCTURE
     1 FMN         1 GROUP 0 A     ****
@<TRIPOS>MOLECULE
[5-(7,8-dimethyl-2,4-dioxo-benzo[g]pteridin-10-yl)-2,3,4-trihydroxy-pentyl] phosphate
   50    52     1     0     0
SMALL
USER_CHARGES

@<TRIPOS>ATOM
      1 N1          1.2277   -6.1042    3.2212 N.2       1 FMN        -0.6988
      2 C2          2.0186   -7.2293    3.3119 C.ar      1 FMN         0.8536
      3 O2          1.7830   -8.1102    4.1421 O.2       1 FMN        -0.6019
      4 N3          3.1050   -7.3794    2.4494 N.pl3     1 FMN        -0.6223
      5 C4          3.4932   -6.4908    1.4752 C.ar      1 FMN         0.6334
      6 O4          4.4350   -6.5937    0.7081 O.2       1 FMN        -0.6125
      7 C4A         2.6001   -5.2945    1.4253 C.ar      1 FMN         0.2211
      8 N5          2.8818   -4.3956    0.5389 N.2       1 FMN        -0.4286
      9 C5A         2.0834   -3.2454    0.4374 C.ar      1 FMN         0.0170
     10 C6          2.4298   -2.2996   -0.5398 C.ar      1 FMN        -0.0553
     11 C7          1.6851   -1.1351   -0.6992 C.ar      1 FMN        -0.1211
     12 C7M         2.0850   -0.1527   -1.7495 C.3       1 FMN        -0.0435
     13 C8          0.5864   -0.9067    0.1183 C.ar      1 FMN        -0.0173
     14 C8M        -0.2342    0.3332   -0.0271 C.3       1 FMN        -0.0630
     15 C9          0.2330   -1.8421    1.0943 C.ar      1 FMN        -0.1390
     16 C9A         0.9704   -3.0274    1.2749 C.ar      1 FMN         0.1887
     17 N10         0.6547   -4.0033    2.2457 N.pl3     1 FMN        -0.5294
     18 C10         1.4328   -5.1491    2.3626 C.ar      1 FMN         0.6151
     19 C1'        -0.5012   -3.7679    3.1095 C.3       1 FMN         0.1741
     20 C2'        -0.0563   -3.0138    4.3619 C.3       1 FMN         0.1411
     21 O2'         0.5241   -3.9440    5.2770 O.3       1 FMN        -0.6334
     22 C3'        -1.2298   -2.2882    5.0499 C.3       1 FMN         0.1067
     23 O3'        -2.3910   -3.1167    5.0179 O.3       1 FMN        -0.6301
     24 C4'        -1.5705   -0.9367    4.3939 C.3       1 FMN         0.0813
     25 O4'        -0.4271   -0.0821    4.4610 O.3       1 FMN        -0.6796
     26 C5'        -2.7419   -0.2353    5.0800 C.3       1 FMN         0.1813
     27 O5'        -2.4005    0.0007    6.4424 O.3       1 FMN        -0.5642
     28 P          -2.3736    1.5561    6.9912 P.3       1 FMN         1.3127
     29 O1P        -1.3234    2.2538    6.1318 O.co2     1 FMN        -0.9243
     30 O2P        -1.9759    1.4072    8.4567 O.co2     1 FMN        -0.9243
     31 O3P        -3.7965    2.0667    6.7839 O.co2     1 FMN        -0.9243
     32 HN3         3.6607   -8.2239    2.5509 H         1 FMN         0.3334
     33 H6          3.2920   -2.4807   -1.1791 H         1 FMN         0.1447
     34 HM71        1.5822   -0.3820   -2.6964 H         1 FMN         0.0392
     35 HM72        1.8243    0.8717   -1.4550 H         1 FMN         0.0392
     36 HM73        3.1694   -0.1698   -1.9170 H         1 FMN         0.0392
     37 HM81       -1.0476    0.1680   -0.7429 H         1 FMN         0.0535
     38 HM82       -0.6692    0.6350    0.9334 H         1 FMN         0.0535
     39 HM83        0.3769    1.1733   -0.3794 H         1 FMN         0.0535
     40 H9         -0.6349   -1.6256    1.7128 H         1 FMN         0.1971
     41 H1'1       -0.9287   -4.7387    3.3617 H         1 FMN         0.1123
     42 H1'2       -1.2289   -3.2002    2.5315 H         1 FMN         0.1123
     43 H2'         0.7199   -2.2895    4.0870 H         1 FMN         0.0570
     44 HO2'        0.7926   -3.4314    6.0542 H         1 FMN         0.4322
     45 H3'        -0.9806   -2.0963    6.1015 H         1 FMN         0.0570
     46 HO3'       -2.1613   -3.9298    5.4930 H         1 FMN         0.4323
     47 H4'        -1.8016   -1.0789    3.3319 H         1 FMN         0.0270
     48 HO4'       -0.6848    0.7512    4.0396 H         1 FMN         0.4672
     49 H5'1       -2.9547    0.7345    4.6187 H         1 FMN         0.0181
     50 H5'2       -3.6408   -0.8591    5.0585 H         1 FMN         0.0181
@<TRIPOS>BOND
     1    1    2 ar
     2    1   18 ar
     3    2    3 2
     4    2    4 ar
     5    4    5 ar
     6    4   32 1
     7    5    6 2
     8    5    7 ar
     9    7    8 ar
    10    7   18 ar
    11    8    9 ar
    12    9   10 ar
    13    9   16 ar
    14   10   11 ar
    15   10   33 1
    16   11   12 1
    17   11   13 ar
    18   12   34 1
    19   12   35 1
    20   12   36 1
    21   13   14 1
    22   13   15 ar
    23   14   37 1
    24   14   38 1
    25   14   39 1
    26   15   16 ar
    27   15   40 1
    28   16   17 ar
    29   17   18 ar
    30   17   19 1
    31   19   20 1
    32   19   41 1
    33   19   42 1
    34   20   21 1
    35   20   22 1
    36   20   43 1
    37   21   44 1
    38   22   23 1
    39   22   24 1
    40   22   45 1
    41   23   46 1
    42   24   25 1
    43   24   26 1
    44   24   47 1
    45   25   48 1
    46   26   27 1
    47   26   49 1
    48   26   50 1
    49   27   28 1
    50   28   29 2
    51   28   30 1
    52   28   31 1
@<TRIPOS>SUBSTRUCTURE
     1 FMN         1 GROUP 0 A     ****
@<TRIPOS>MOLECULE
[5-(7,8-dimethyl-2,4-dioxo-benzo[g]pteridin-10-yl)-2,3,4-trihydroxy-pentyl] phosphate
   50    52     1     0     0
SMALL
USER_CHARGES

@<TRIPOS>ATOM
      1 N1          1.2277   -6.1042    3.2212 N.2       1 FMN        -0.6988
      2 C2          2.0186   -7.2293    3.3119 C.ar      1 FMN         0.8536
      3 O2          1.7830   -8.1102    4.1421 O.2       1 FMN        -0.6019
      4 N3          3.1050   -7.3794    2.4494 N.pl3     1 FMN        -0.6223
      5 C4          3.4932   -6.4908    1.4752 C.ar      1 FMN         0.6334
      6 O4          4.4350   -6.5937    0.7081 O.2       1 FMN        -0.6125
      7 C4A         2.6001   -5.2945    1.4253 C.ar      1 FMN         0.2211
      8 N5          2.8818   -4.3956    0.5389 N.2       1 FMN        -0.4286
      9 C5A         2.0834   -3.2454    0.4374 C.ar      1 FMN         0.0170
     10 C6          2.4298   -2.2996   -0.5398 C.ar      1 FMN        -0.0553
     11 C7          1.6851   -1.1351   -0.6992 C.ar      1 FMN        -0.1211
     12 C7M         2.0850   -0.1527   -1.7495 C.3       1 FMN        -0.0435
     13 C8          0.5864   -0.9067    0.1183 C.ar      1 FMN        -0.0173
     14 C8M        -0.2342    0.3332   -0.0271 C.3       1 FMN        -0.0630
     15 C9          0.2330   -1.8421    1.0943 C.ar      1 FMN        -0.1390
     16 C9A         0.9704   -3.0274    1.2749 C.ar      1 FMN         0.1887
     17 N10         0.6547   -4.0033    2.2457 N.pl3     1 FMN        -0.5294
     18 C10         1.4328   -5.1491    2.3626 C.ar      1 FMN         0.6151
     19 C1'        -0.5012   -3.7679    3.1095 C.3       1 FMN         0.1741
     20 C2'        -0.0563   -3.0138    4.3619 C.3       1 FMN         0.1411
     21 O2'         0.9124   -3.8026    5.0539 O.3       1 FMN        -0.6334
     22 C3'        -1.2361   -2.7121    5.3074 C.3       1 FMN         0.1067
     23 O3'        -2.3794   -2.3335    4.5422 O.3       1 FMN        -0.6301
     24 C4'        -0.9268   -1.5918    6.3185 C.3       1 FMN         0.0813
     25 O4'        -0.6174   -0.3915    5.6073 O.3       1 FMN        -0.6796
     26 C5'         0.2532   -1.9361    7.2263 C.3       1 FMN         0.1813
     27 O5'         0.1897   -1.1183    8.3905 O.3       1 FMN        -0.5642
     28 P           1.3579   -1.2927    9.5420 P.3       1 FMN         1.3127
     29 O1P         1.2406   -2.7439    9.9987 O.co2     1 FMN        -0.9243
     30 O2P         0.9605   -0.2741   10.6062 O.co2     1 FMN        -0.9243
     31 O3P         2.6637   -0.9625    8.8249 O.co2     1 FMN        -0.9243
     32 HN3         3.6607   -8.2239    2.5509 H         1 FMN         0.3334
     33 H6          3.2920   -2.4807   -1.1791 H         1 FMN         0.1447
     34 HM71        1.5822   -0.3820   -2.6964 H         1 FMN         0.0392
     35 HM72        1.8243    0.8717   -1.4550 H         1 FMN         0.0392
     36 HM73        3.1694   -0.1698   -1.9170 H         1 FMN         0.0392
     37 HM81       -1.0476    0.1680   -0.7429 H         1 FMN         0.0535
     38 HM82       -0.6692    0.6350    0.9334 H         1 FMN         0.0535
     39 HM83        0.3769    1.1733   -0.3794 H         1 FMN         0.0535
     40 H9         -0.6349   -1.6256    1.7128 H         1 FMN         0.1971
     41 H1'1       -0.9287   -4.7387    3.3617 H         1 FMN         0.1123
     42 H1'2       -1.2289   -3.2002    2.5315 H         1 FMN         0.1123
     43 H2'         0.4300   -2.0775    4.0623 H         1 FMN         0.0570
     44 HO2'        0.4737   -4.6359    5.2820 H         1 FMN         0.4322
     45 H3'        -1.4942   -3.6145    5.8764 H         1 FMN         0.0570
     46 HO3'       -3.0888   -2.1556    5.1783 H         1 FMN         0.4323
     47 H4'        -1.8102   -1.3813    6.9323 H         1 FMN         0.0270
     48 HO4'       -1.4004   -0.1789    5.0782 H         1 FMN         0.4672
     49 H5'1        0.2171   -2.9806    7.5523 H         1 FMN         0.0181
     50 H5'2        1.2056   -1.7391    6.7246 H         1 FMN         0.0181
@<TRIPOS>BOND
     1    1    2 ar
     2    1   18 ar
     3    2    3 2
     4    2    4 ar
     5    4    5 ar
     6    4   32 1
     7    5    6 2
     8    5    7 ar
     9    7    8 ar
    10    7   18 ar
    11    8    9 ar
    12    9   10 ar
    13    9   16 ar
    14   10   11 ar
    15   10   33 1
    16   11   12 1
    17   11   13 ar
    18   12   34 1
    19   12   35 1
    20   12   36 1
    21   13   14 1
    22   13   15 ar
    23   14   37 1
    24   14   38 1
    25   14   39 1
    26   15   16 ar
    27   15   40 1
    28   16   17 ar
    29   17   18 ar
    30   17   19 1
    31   19   20 1
    32   19   41 1
    33   19   42 1
    34   20   21 1
    35   20   22 1
    36   20   43 1
    37   21   44 1
    38   22   23 1
    39   22   24 1
    40   22   45 1
    41   23   46 1
    42   24   25 1
    43   24   26 1
    44   24   47 1
    45   25   48 1
    46   26   27 1
    47   26   49 1
    48   26   50 1
    49   27   28 1
    50   28   29 2
    51   28   30 1
    52   28   31 1
@<TRIPOS>SUBSTRUCTURE
     1 FMN         1 GROUP 0 A     ****
@<TRIPOS>MOLECULE
[5-(7,8-dimethyl-2,4-dioxo-benzo[g]pteridin-10-yl)-2,3,4-trihydroxy-pentyl] phosphate
   50    52     1     0     0
SMALL
USER_CHARGES

@<TRIPOS>ATOM
      1 N1          1.2277   -6.1042    3.2212 N.2       1 FMN        -0.6988
      2 C2          2.0186   -7.2293    3.3119 C.ar      1 FMN         0.8536
      3 O2          1.7830   -8.1102    4.1421 O.2       1 FMN        -0.6019
      4 N3          3.1050   -7.3794    2.4494 N.pl3     1 FMN        -0.6223
      5 C4          3.4932   -6.4908    1.4752 C.ar      1 FMN         0.6334
      6 O4          4.4350   -6.5937    0.7081 O.2       1 FMN        -0.6125
      7 C4A         2.6001   -5.2945    1.4253 C.ar      1 FMN         0.2211
      8 N5          2.8818   -4.3956    0.5389 N.2       1 FMN        -0.4286
      9 C5A         2.0834   -3.2454    0.4374 C.ar      1 FMN         0.0170
     10 C6          2.4298   -2.2996   -0.5398 C.ar      1 FMN        -0.0553
     11 C7          1.6851   -1.1351   -0.6992 C.ar      1 FMN        -0.1211
     12 C7M         2.0850   -0.1527   -1.7495 C.3       1 FMN        -0.0435
     13 C8          0.5864   -0.9067    0.1183 C.ar      1 FMN        -0.0173
     14 C8M        -0.2342    0.3332   -0.0271 C.3       1 FMN        -0.0630
     15 C9          0.2330   -1.8421    1.0943 C.ar      1 FMN        -0.1390
     16 C9A         0.9704   -3.0274    1.2749 C.ar      1 FMN         0.1887
     17 N10         0.6547   -4.0033    2.2457 N.pl3     1 FMN        -0.5294
     18 C10         1.4328   -5.1491    2.3626 C.ar      1 FMN         0.6151
     19 C1'        -0.5012   -3.7679    3.1095 C.3       1 FMN         0.1741
     20 C2'        -1.7519   -4.3580    2.4592 C.3       1 FMN         0.1411
     21 O2'        -1.9553   -3.7249    1.1953 O.3       1 FMN        -0.6334
     22 C3'        -3.0070   -4.1638    3.3332 C.3       1 FMN         0.1067
     23 O3'        -3.2338   -2.7710    3.5442 O.3       1 FMN        -0.6301
     24 C4'        -2.9003   -4.8589    4.7039 C.3       1 FMN         0.0813
     25 O4'        -2.7181   -6.2621    4.5044 O.3       1 FMN        -0.6796
     26 C5'        -4.1468   -4.6482    5.5621 C.3       1 FMN         0.1813
     27 O5'        -5.2730   -5.1837    4.8740 O.3       1 FMN        -0.5642
     28 P          -6.7557   -5.0843    5.5899 P.3       1 FMN         1.3127
     29 O1P        -6.6099   -5.8598    6.8959 O.co2     1 FMN        -0.9243
     30 O2P        -7.6833   -5.7471    4.5758 O.co2     1 FMN        -0.9243
     31 O3P        -7.0015   -3.5892    5.7702 O.co2     1 FMN        -0.9243
     32 HN3         3.6607   -8.2239    2.5509 H         1 FMN         0.3334
     33 H6          3.2920   -2.4807   -1.1791 H         1 FMN         0.1447
     34 HM71        1.5822   -0.3820   -2.6964 H         1 FMN         0.0392
     35 HM72        1.8243    0.8717   -1.4550 H         1 FMN         0.0392
     36 HM73        3.1694   -0.1698   -1.9170 H         1 FMN         0.0392
     37 HM81       -1.0476    0.1680   -0.7429 H         1 FMN         0.0535
     38 HM82       -0.6692    0.6350    0.9334 H         1 FMN         0.0535
     39 HM83        0.3769    1.1733   -0.3794 H         1 FMN         0.0535
     40 H9         -0.6349   -1.6256    1.7128 H         1 FMN         0.1971
     41 H1'1       -0.5966   -2.6906    3.2480 H         1 FMN         0.1123
     42 H1'2       -0.2877   -4.2309    4.0717 H         1 FMN         0.1123
     43 H2'        -1.5888   -5.4264    2.2735 H         1 FMN         0.0570
     44 HO2'       -2.7528   -4.1231    0.8155 H         1 FMN         0.4322
     45 H3'        -3.8843   -4.5745    2.8172 H         1 FMN         0.0570
     46 HO3'       -3.3591   -2.3774    2.6674 H         1 FMN         0.4323
     47 H4'        -2.0190   -4.4956    5.2450 H         1 FMN         0.0270
     48 HO4'       -2.6564   -6.6569    5.3868 H         1 FMN         0.4672
     49 H5'1       -4.0660   -5.1692    6.5215 H         1 FMN         0.0181
     50 H5'2       -4.3297   -3.5832    5.7350 H         1 FMN         0.0181
@<TRIPOS>BOND
     1    1    2 ar
     2    1   18 ar
     3    2    3 2
     4    2    4 ar
     5    4    5 ar
     6    4   32 1
     7    5    6 2
     8    5    7 ar
     9    7    8 ar
    10    7   18 ar
    11    8    9 ar
    12    9   10 ar
    13    9   16 ar
    14   10   11 ar
    15   10   33 1
    16   11   12 1
    17   11   13 ar
    18   12   34 1
    19   12   35 1
    20   12   36 1
    21   13   14 1
    22   13   15 ar
    23   14   37 1
    24   14   38 1
    25   14   39 1
    26   15   16 ar
    27   15   40 1
    28   16   17 ar
    29   17   18 ar
    30   17   19 1
    31   19   20 1
    32   19   41 1
    33   19   42 1
    34   20   21 1
    35   20   22 1
    36   20   43 1
    37   21   44 1
    38   22   23 1
    39   22   24 1
    40   22   45 1
    41   23   46 1
    42   24   25 1
    43   24   26 1
    44   24   47 1
    45   25   48 1
    46   26   27 1
    47   26   49 1
    48   26   50 1
    49   27   28 1
    50   28   29 2
    51   28   30 1
    52   28   31 1
@<TRIPOS>SUBSTRUCTURE
     1 FMN         1 GROUP 0 A     ****
@<TRIPOS>MOLECULE
[5-(7,8-dimethyl-2,4-dioxo-benzo[g]pteridin-10-yl)-2,3,4-trihydroxy-pentyl] phosphate
   50    52     1     0     0
SMALL
USER_CHARGES

@<TRIPOS>ATOM
      1 N1          1.2277   -6.1042    3.2212 N.2       1 FMN        -0.6988
      2 C2          2.0186   -7.2293    3.3119 C.ar      1 FMN         0.8536
      3 O2          1.7830   -8.1102    4.1421 O.2       1 FMN        -0.6019
      4 N3          3.1050   -7.3794    2.4494 N.pl3     1 FMN        -0.6223
      5 C4          3.4932   -6.4908    1.4752 C.ar      1 FMN         0.6334
      6 O4          4.4350   -6.5937    0.7081 O.2       1 FMN        -0.6125
      7 C4A         2.6001   -5.2945    1.4253 C.ar      1 FMN         0.2211
      8 N5          2.8818   -4.3956    0.5389 N.2       1 FMN        -0.4286
      9 C5A         2.0834   -3.2454    0.4374 C.ar      1 FMN         0.0170
     10 C6          2.4298   -2.2996   -0.5398 C.ar      1 FMN        -0.0553
     11 C7          1.6851   -1.1351   -0.6992 C.ar      1 FMN        -0.1211
     12 C7M         2.0850   -0.1527   -1.7495 C.3       1 FMN        -0.0435
     13 C8          0.5864   -0.9067    0.1183 C.ar      1 FMN        -0.0173
     14 C8M        -0.2342    0.3332   -0.0271 C.3       1 FMN        -0.0630
     15 C9          0.2330   -1.8421    1.0943 C.ar      1 FMN        -0.1390
     16 C9A         0.9704   -3.0274    1.2749 C.ar      1 FMN         0.1887
     17 N10         0.6547   -4.0033    2.2457 N.pl3     1 FMN        -0.5294
     18 C10         1.4328   -5.1491    2.3626 C.ar      1 FMN         0.6151
     19 C1'        -0.5012   -3.7679    3.1095 C.3       1 FMN         0.1741
     20 C2'        -1.7519   -4.3580    2.4592 C.3       1 FMN         0.1411
     21 O2'        -2.2248   -3.4496    1.4638 O.3       1 FMN        -0.6334
     22 C3'        -2.8727   -4.6164    3.4857 C.3       1 FMN         0.1067
     23 O3'        -2.4138   -5.5356    4.4758 O.3       1 FMN        -0.6301
     24 C4'        -4.1564   -5.1800    2.8473 C.3       1 FMN         0.0813
     25 O4'        -5.1350   -5.3872    3.8678 O.3       1 FMN        -0.6796
     26 C5'        -3.9153   -6.5070    2.1292 C.3       1 FMN         0.1813
     27 O5'        -5.1460   -6.9561    1.5704 O.3       1 FMN        -0.5642
     28 P          -5.1610   -8.3783    0.7350 P.3       1 FMN         1.3127
     29 O1P        -4.1893   -8.1607   -0.4211 O.co2     1 FMN        -0.9243
     30 O2P        -6.6174   -8.5190    0.3023 O.co2     1 FMN        -0.9243
     31 O3P        -4.7106   -9.4285    1.7462 O.co2     1 FMN        -0.9243
     32 HN3         3.6607   -8.2239    2.5509 H         1 FMN         0.3334
     33 H6          3.2920   -2.4807   -1.1791 H         1 FMN         0.1447
     34 HM71        1.5822   -0.3820   -2.6964 H         1 FMN         0.0392
     35 HM72        1.8243    0.8717   -1.4550 H         1 FMN         0.0392
     36 HM73        3.1694   -0.1698   -1.9170 H         1 FMN         0.0392
     37 HM81       -1.0476    0.1680   -0.7429 H         1 FMN         0.0535
     38 HM82       -0.6692    0.6350    0.9334 H         1 FMN         0.0535
     39 HM83        0.3769    1.1733   -0.3794 H         1 FMN         0.0535
     40 H9         -0.6349   -1.6256    1.7128 H         1 FMN         0.1971
     41 H1'1       -0.5966   -2.6906    3.2480 H         1 FMN         0.1123
     42 H1'2       -0.2877   -4.2309    4.0717 H         1 FMN         0.1123
     43 H2'        -1.4853   -5.2946    1.9549 H         1 FMN         0.0570
     44 HO2'       -2.4249   -2.6205    1.9234 H         1 FMN         0.4322
     45 H3'        -3.1346   -3.6782    3.9915 H         1 FMN         0.0570
     46 HO3'       -3.1498   -5.6642    5.0933 H         1 FMN         0.4323
     47 H4'        -4.5783   -4.4547    2.1420 H         1 FMN         0.0270
     48 HO4'       -5.9206   -5.7399    3.4243 H         1 FMN         0.4672
     49 H5'1       -3.1999   -6.3947    1.3082 H         1 FMN         0.0181
     50 H5'2       -3.5598   -7.2722    2.8261 H         1 FMN         0.0181
@<TRIPOS>BOND
     1    1    2 ar
     2    1   18 ar
     3    2    3 2
     4    2    4 ar
     5    4    5 ar
     6    4   32 1
     7    5    6 2
     8    5    7 ar
     9    7    8 ar
    10    7   18 ar
    11    8    9 ar
    12    9   10 ar
    13    9   16 ar
    14   10   11 ar
    15   10   33 1
    16   11   12 1
    17   11   13 ar
    18   12   34 1
    19   12   35 1
    20   12   36 1
    21   13   14 1
    22   13   15 ar
    23   14   37 1
    24   14   38 1
    25   14   39 1
    26   15   16 ar
    27   15   40 1
    28   16   17 ar
    29   17   18 ar
    30   17   19 1
    31   19   20 1
    32   19   41 1
    33   19   42 1
    34   20   21 1
    35   20   22 1
    36   20   43 1
    37   21   44 1
    38   22   23 1
    39   22   24 1
    40   22   45 1
    41   23   46 1
    42   24   25 1
    43   24   26 1
    44   24   47 1
    45   25   48 1
    46   26   27 1
    47   26   49 1
    48   26   50 1
    49   27   28 1
    50   28   29 2
    51   28   30 1
    52   28   31 1
@<TRIPOS>SUBSTRUCTURE
     1 FMN         1 GROUP 0 A     ****
@<TRIPOS>MOLECULE
[5-(7,8-dimethyl-2,4-dioxo-benzo[g]pteridin-10-yl)-2,3,4-trihydroxy-pentyl] phosphate
   50    52     1     0     0
SMALL
USER_CHARGES

@<TRIPOS>ATOM
      1 N1          1.2277   -6.1042    3.2212 N.2       1 FMN        -0.6988
      2 C2          2.0186   -7.2293    3.3119 C.ar      1 FMN         0.8536
      3 O2          1.7830   -8.1102    4.1421 O.2       1 FMN        -0.6019
      4 N3          3.1050   -7.3794    2.4494 N.pl3     1 FMN        -0.6223
      5 C4          3.4932   -6.4908    1.4752 C.ar      1 FMN         0.6334
      6 O4          4.4350   -6.5937    0.7081 O.2       1 FMN        -0.6125
      7 C4A         2.6001   -5.2945    1.4253 C.ar      1 FMN         0.2211
      8 N5          2.8818   -4.3956    0.5389 N.2       1 FMN        -0.4286
      9 C5A         2.0834   -3.2454    0.4374 C.ar      1 FMN         0.0170
     10 C6          2.4298   -2.2996   -0.5398 C.ar      1 FMN        -0.0553
     11 C7          1.6851   -1.1351   -0.6992 C.ar      1 FMN        -0.1211
     12 C7M         2.0850   -0.1527   -1.7495 C.3       1 FMN        -0.0435
     13 C8          0.5864   -0.9067    0.1183 C.ar      1 FMN        -0.0173
     14 C8M        -0.2342    0.3332   -0.0271 C.3       1 FMN        -0.0630
     15 C9          0.2330   -1.8421    1.0943 C.ar      1 FMN        -0.1390
     16 C9A         0.9704   -3.0274    1.2749 C.ar      1 FMN         0.1887
     17 N10         0.6547   -4.0033    2.2457 N.pl3     1 FMN        -0.5294
     18 C10         1.4328   -5.1491    2.3626 C.ar      1 FMN         0.6151
     19 C1'        -0.5012   -3.7679    3.1095 C.3       1 FMN         0.1741
     20 C2'        -0.0563   -3.0138    4.3619 C.3       1 FMN         0.1411
     21 O2'         0.5241   -3.9440    5.2770 O.3       1 FMN        -0.6334
     22 C3'        -1.2298   -2.2882    5.0499 C.3       1 FMN         0.1067
     23 O3'        -1.5040   -1.0654    4.3675 O.3       1 FMN        -0.6301
     24 C4'        -0.9577   -1.9744    6.5333 C.3       1 FMN         0.0813
     25 O4'        -2.0930   -1.3054    7.0863 O.3       1 FMN        -0.6796
     26 C5'         0.2704   -1.0855    6.7247 C.3       1 FMN         0.1813
     27 O5'         0.7278   -1.2185    8.0669 O.3       1 FMN        -0.5642
     28 P           2.2589   -1.7744    8.3274 P.3       1 FMN         1.3127
     29 O1P         2.2798   -3.1652    7.7000 O.co2     1 FMN        -0.9243
     30 O2P         2.3795   -1.7789    9.8484 O.co2     1 FMN        -0.9243
     31 O3P         3.1645   -0.7590    7.6368 O.co2     1 FMN        -0.9243
     32 HN3         3.6607   -8.2239    2.5509 H         1 FMN         0.3334
     33 H6          3.2920   -2.4807   -1.1791 H         1 FMN         0.1447
     34 HM71        1.5822   -0.3820   -2.6964 H         1 FMN         0.0392
     35 HM72        1.8243    0.8717   -1.4550 H         1 FMN         0.0392
     36 HM73        3.1694   -0.1698   -1.9170 H         1 FMN         0.0392
     37 HM81       -1.0476    0.1680   -0.7429 H         1 FMN         0.0535
     38 HM82       -0.6692    0.6350    0.9334 H         1 FMN         0.0535
     39 HM83        0.3769    1.1733   -0.3794 H         1 FMN         0.0535
     40 H9         -0.6349   -1.6256    1.7128 H         1 FMN         0.1971
     41 H1'1       -0.9287   -4.7387    3.3617 H         1 FMN         0.1123
     42 H1'2       -1.2289   -3.2002    2.5315 H         1 FMN         0.1123
     43 H2'         0.7199   -2.2895    4.0870 H         1 FMN         0.0570
     44 HO2'        1.2793   -4.3426    4.8192 H         1 FMN         0.4322
     45 H3'        -2.1311   -2.9124    4.9998 H         1 FMN         0.0570
     46 HO3'       -2.2442   -0.6499    4.8354 H         1 FMN         0.4323
     47 H4'        -0.8271   -2.9040    7.0992 H         1 FMN         0.0270
     48 HO4'       -2.8412   -1.9128    6.9887 H         1 FMN         0.4672
     49 H5'1        1.0898   -1.3857    6.0638 H         1 FMN         0.0181
     50 H5'2        0.0246   -0.0331    6.5527 H         1 FMN         0.0181
@<TRIPOS>BOND
     1    1    2 ar
     2    1   18 ar
     3    2    3 2
     4    2    4 ar
     5    4    5 ar
     6    4   32 1
     7    5    6 2
     8    5    7 ar
     9    7    8 ar
    10    7   18 ar
    11    8    9 ar
    12    9   10 ar
    13    9   16 ar
    14   10   11 ar
    15   10   33 1
    16   11   12 1
    17   11   13 ar
    18   12   34 1
    19   12   35 1
    20   12   36 1
    21   13   14 1
    22   13   15 ar
    23   14   37 1
    24   14   38 1
    25   14   39 1
    26   15   16 ar
    27   15   40 1
    28   16   17 ar
    29   17   18 ar
    30   17   19 1
    31   19   20 1
    32   19   41 1
    33   19   42 1
    34   20   21 1
    35   20   22 1
    36   20   43 1
    37   21   44 1
    38   22   23 1
    39   22   24 1
    40   22   45 1
    41   23   46 1
    42   24   25 1
    43   24   26 1
    44   24   47 1
    45   25   48 1
    46   26   27 1
    47   26   49 1
    48   26   50 1
    49   27   28 1
    50   28   29 2
    51   28   30 1
    52   28   31 1
@<TRIPOS>SUBSTRUCTURE
     1 FMN         1 GROUP 0 A     ****
@<TRIPOS>MOLECULE
[5-(7,8-dimethyl-2,4-dioxo-benzo[g]pteridin-10-yl)-2,3,4-trihydroxy-pentyl] phosphate
   50    52     1     0     0
SMALL
USER_CHARGES

@<TRIPOS>ATOM
      1 N1          1.2277   -6.1042    3.2212 N.2       1 FMN        -0.6988
      2 C2          2.0186   -7.2293    3.3119 C.ar      1 FMN         0.8536
      3 O2          1.7830   -8.1102    4.1421 O.2       1 FMN        -0.6019
      4 N3          3.1050   -7.3794    2.4494 N.pl3     1 FMN        -0.6223
      5 C4          3.4932   -6.4908    1.4752 C.ar      1 FMN         0.6334
      6 O4          4.4350   -6.5937    0.7081 O.2       1 FMN        -0.6125
      7 C4A         2.6001   -5.2945    1.4253 C.ar      1 FMN         0.2211
      8 N5          2.8818   -4.3956    0.5389 N.2       1 FMN        -0.4286
      9 C5A         2.0834   -3.2454    0.4374 C.ar      1 FMN         0.0170
     10 C6          2.4298   -2.2996   -0.5398 C.ar      1 FMN        -0.0553
     11 C7          1.6851   -1.1351   -0.6992 C.ar      1 FMN        -0.1211
     12 C7M         2.0850   -0.1527   -1.7495 C.3       1 FMN        -0.0435
     13 C8          0.5864   -0.9067    0.1183 C.ar      1 FMN        -0.0173
     14 C8M        -0.2342    0.3332   -0.0271 C.3       1 FMN        -0.0630
     15 C9          0.2330   -1.8421    1.0943 C.ar      1 FMN        -0.1390
     16 C9A         0.9704   -3.0274    1.2749 C.ar      1 FMN         0.1887
     17 N10         0.6547   -4.0033    2.2457 N.pl3     1 FMN        -0.5294
     18 C10         1.4328   -5.1491    2.3626 C.ar      1 FMN         0.6151
     19 C1'        -0.5012   -3.7679    3.1095 C.3       1 FMN         0.1741
     20 C2'        -0.0563   -3.0138    4.3619 C.3       1 FMN         0.1411
     21 O2'         0.5241   -3.9440    5.2770 O.3       1 FMN        -0.6334
     22 C3'        -1.2298   -2.2882    5.0499 C.3       1 FMN         0.1067
     23 O3'        -0.7569   -1.6035    6.2091 O.3       1 FMN        -0.6301
     24 C4'        -2.3650   -3.2413    5.4693 C.3       1 FMN         0.0813
     25 O4'        -3.5647   -2.4875    5.6548 O.3       1 FMN        -0.6796
     26 C5'        -2.0522   -3.9835    6.7678 C.3       1 FMN         0.1813
     27 O5'        -3.1469   -4.8386    7.0821 O.3       1 FMN        -0.5642
     28 P          -3.0618   -5.7600    8.4477 P.3       1 FMN         1.3127
     29 O1P        -1.8366   -6.6462    8.2435 O.co2     1 FMN        -0.9243
     30 O2P        -4.3844   -6.5207    8.4441 O.co2     1 FMN        -0.9243
     31 O3P        -2.9281   -4.7547    9.5878 O.co2     1 FMN        -0.9243
     32 HN3         3.6607   -8.2239    2.5509 H         1 FMN         0.3334
     33 H6          3.2920   -2.4807   -1.1791 H         1 FMN         0.1447
     34 HM71        1.5822   -0.3820   -2.6964 H         1 FMN         0.0392
     35 HM72        1.8243    0.8717   -1.4550 H         1 FMN         0.0392
     36 HM73        3.1694   -0.1698   -1.9170 H         1 FMN         0.0392
     37 HM81       -1.0476    0.1680   -0.7429 H         1 FMN         0.0535
     38 HM82       -0.6692    0.6350    0.9334 H         1 FMN         0.0535
     39 HM83        0.3769    1.1733   -0.3794 H         1 FMN         0.0535
     40 H9         -0.6349   -1.6256    1.7128 H         1 FMN         0.1971
     41 H1'1       -0.9287   -4.7387    3.3617 H         1 FMN         0.1123
     42 H1'2       -1.2289   -3.2002    2.5315 H         1 FMN         0.1123
     43 H2'         0.7199   -2.2895    4.0870 H         1 FMN         0.0570
     44 HO2'        0.7926   -3.4314    6.0542 H         1 FMN         0.4322
     45 H3'        -1.6548   -1.5417    4.3667 H         1 FMN         0.0570
     46 HO3'       -0.0916   -0.9695    5.9012 H         1 FMN         0.4323
     47 H4'        -2.5634   -3.9674    4.6725 H         1 FMN         0.0270
     48 HO4'       -4.2478   -3.1227    5.9162 H         1 FMN         0.4672
     49 H5'1       -1.1603   -4.6102    6.6668 H         1 FMN         0.0181
     50 H5'2       -1.9190   -3.2836    7.5984 H         1 FMN         0.0181
@<TRIPOS>BOND
     1    1    2 ar
     2    1   18 ar
     3    2    3 2
     4    2    4 ar
     5    4    5 ar
     6    4   32 1
     7    5    6 2
     8    5    7 ar
     9    7    8 ar
    10    7   18 ar
    11    8    9 ar
    12    9   10 ar
    13    9   16 ar
    14   10   11 ar
    15   10   33 1
    16   11   12 1
    17   11   13 ar
    18   12   34 1
    19   12   35 1
    20   12   36 1
    21   13   14 1
    22   13   15 ar
    23   14   37 1
    24   14   38 1
    25   14   39 1
    26   15   16 ar
    27   15   40 1
    28   16   17 ar
    29   17   18 ar
    30   17   19 1
    31   19   20 1
    32   19   41 1
    33   19   42 1
    34   20   21 1
    35   20   22 1
    36   20   43 1
    37   21   44 1
    38   22   23 1
    39   22   24 1
    40   22   45 1
    41   23   46 1
    42   24   25 1
    43   24   26 1
    44   24   47 1
    45   25   48 1
    46   26   27 1
    47   26   49 1
    48   26   50 1
    49   27   28 1
    50   28   29 2
    51   28   30 1
    52   28   31 1
@<TRIPOS>SUBSTRUCTURE
     1 FMN         1 GROUP 0 A     ****
@<TRIPOS>MOLECULE
[5-(7,8-dimethyl-2,4-dioxo-benzo[g]pteridin-10-yl)-2,3,4-trihydroxy-pentyl] phosphate
   50    52     1     0     0
SMALL
USER_CHARGES

@<TRIPOS>ATOM
      1 N1          1.2277   -6.1042    3.2212 N.2       1 FMN        -0.6988
      2 C2          2.0186   -7.2293    3.3119 C.ar      1 FMN         0.8536
      3 O2          1.7830   -8.1102    4.1421 O.2       1 FMN        -0.6019
      4 N3          3.1050   -7.3794    2.4494 N.pl3     1 FMN        -0.6223
      5 C4          3.4932   -6.4908    1.4752 C.ar      1 FMN         0.6334
      6 O4          4.4350   -6.5937    0.7081 O.2       1 FMN        -0.6125
      7 C4A         2.6001   -5.2945    1.4253 C.ar      1 FMN         0.2211
      8 N5          2.8818   -4.3956    0.5389 N.2       1 FMN        -0.4286
      9 C5A         2.0834   -3.2454    0.4374 C.ar      1 FMN         0.0170
     10 C6          2.4298   -2.2996   -0.5398 C.ar      1 FMN        -0.0553
     11 C7          1.6851   -1.1351   -0.6992 C.ar      1 FMN        -0.1211
     12 C7M         2.0850   -0.1527   -1.7495 C.3       1 FMN        -0.0435
     13 C8          0.5864   -0.9067    0.1183 C.ar      1 FMN        -0.0173
     14 C8M        -0.2342    0.3332   -0.0271 C.3       1 FMN        -0.0630
     15 C9          0.2330   -1.8421    1.0943 C.ar      1 FMN        -0.1390
     16 C9A         0.9704   -3.0274    1.2749 C.ar      1 FMN         0.1887
     17 N10         0.6547   -4.0033    2.2457 N.pl3     1 FMN        -0.5294
     18 C10         1.4328   -5.1491    2.3626 C.ar      1 FMN         0.6151
     19 C1'        -0.5012   -3.7679    3.1095 C.3       1 FMN         0.1741
     20 C2'        -0.0563   -3.0138    4.3619 C.3       1 FMN         0.1411
     21 O2'         0.9124   -3.8026    5.0539 O.3       1 FMN        -0.6334
     22 C3'        -1.2361   -2.7121    5.3074 C.3       1 FMN         0.1067
     23 O3'        -2.1140   -3.8360    5.3527 O.3       1 FMN        -0.6301
     24 C4'        -2.0453   -1.4714    4.8845 C.3       1 FMN         0.0813
     25 O4'        -2.5765   -1.6828    3.5749 O.3       1 FMN        -0.6796
     26 C5'        -1.1959   -0.2013    4.8647 C.3       1 FMN         0.1813
     27 O5'        -2.0600    0.9290    4.9304 O.3       1 FMN        -0.5642
     28 P          -1.3896    2.4362    4.9243 P.3       1 FMN         1.3127
     29 O1P        -0.4998    2.4713    6.1633 O.co2     1 FMN        -0.9243
     30 O2P        -2.5998    3.3619    5.0039 O.co2     1 FMN        -0.9243
     31 O3P        -0.6314    2.5195    3.6027 O.co2     1 FMN        -0.9243
     32 HN3         3.6607   -8.2239    2.5509 H         1 FMN         0.3334
     33 H6          3.2920   -2.4807   -1.1791 H         1 FMN         0.1447
     34 HM71        1.5822   -0.3820   -2.6964 H         1 FMN         0.0392
     35 HM72        1.8243    0.8717   -1.4550 H         1 FMN         0.0392
     36 HM73        3.1694   -0.1698   -1.9170 H         1 FMN         0.0392
     37 HM81       -1.0476    0.1680   -0.7429 H         1 FMN         0.0535
     38 HM82       -0.6692    0.6350    0.9334 H         1 FMN         0.0535
     39 HM83        0.3769    1.1733   -0.3794 H         1 FMN         0.0535
     40 H9         -0.6349   -1.6256    1.7128 H         1 FMN         0.1971
     41 H1'1       -0.9287   -4.7387    3.3617 H         1 FMN         0.1123
     42 H1'2       -1.2289   -3.2002    2.5315 H         1 FMN         0.1123
     43 H2'         0.4300   -2.0775    4.0623 H         1 FMN         0.0570
     44 HO2'        1.1692   -3.2943    5.8378 H         1 FMN         0.4322
     45 H3'        -0.8602   -2.5361    6.3235 H         1 FMN         0.0570
     46 HO3'       -1.5891   -4.5813    5.6821 H         1 FMN         0.4323
     47 H4'        -2.8991   -1.3290    5.5570 H         1 FMN         0.0270
     48 HO4'       -3.0748   -0.8829    3.3506 H         1 FMN         0.4672
     49 H5'1       -0.5232   -0.1550    5.7271 H         1 FMN         0.0181
     50 H5'2       -0.6152   -0.1311    3.9398 H         1 FMN         0.0181
@<TRIPOS>BOND
     1    1    2 ar
     2    1   18 ar
     3    2    3 2
     4    2    4 ar
     5    4    5 ar
     6    4   32 1
     7    5    6 2
     8    5    7 ar
     9    7    8 ar
    10    7   18 ar
    11    8    9 ar
    12    9   10 ar
    13    9   16 ar
    14   10   11 ar
    15   10   33 1
    16   11   12 1
    17   11   13 ar
    18   12   34 1
    19   12   35 1
    20   12   36 1
    21   13   14 1
    22   13   15 ar
    23   14   37 1
    24   14   38 1
    25   14   39 1
    26   15   16 ar
    27   15   40 1
    28   16   17 ar
    29   17   18 ar
    30   17   19 1
    31   19   20 1
    32   19   41 1
    33   19   42 1
    34   20   21 1
    35   20   22 1
    36   20   43 1
    37   21   44 1
    38   22   23 1
    39   22   24 1
    40   22   45 1
    41   23   46 1
    42   24   25 1
    43   24   26 1
    44   24   47 1
    45   25   48 1
    46   26   27 1
    47   26   49 1
    48   26   50 1
    49   27   28 1
    50   28   29 2
    51   28   30 1
    52   28   31 1
@<TRIPOS>SUBSTRUCTURE
     1 FMN         1 GROUP 0 A     ****
@<TRIPOS>MOLECULE
[5-(7,8-dimethyl-2,4-dioxo-benzo[g]pteridin-10-yl)-2,3,4-trihydroxy-pentyl] phosphate
   50    52     1     0     0
SMALL
USER_CHARGES

@<TRIPOS>ATOM
      1 N1          1.2277   -6.1042    3.2212 N.2       1 FMN        -0.6988
      2 C2          2.0186   -7.2293    3.3119 C.ar      1 FMN         0.8536
      3 O2          1.7830   -8.1102    4.1421 O.2       1 FMN        -0.6019
      4 N3          3.1050   -7.3794    2.4494 N.pl3     1 FMN        -0.6223
      5 C4          3.4932   -6.4908    1.4752 C.ar      1 FMN         0.6334
      6 O4          4.4350   -6.5937    0.7081 O.2       1 FMN        -0.6125
      7 C4A         2.6001   -5.2945    1.4253 C.ar      1 FMN         0.2211
      8 N5          2.8818   -4.3956    0.5389 N.2       1 FMN        -0.4286
      9 C5A         2.0834   -3.2454    0.4374 C.ar      1 FMN         0.0170
     10 C6          2.4298   -2.2996   -0.5398 C.ar      1 FMN        -0.0553
     11 C7          1.6851   -1.1351   -0.6992 C.ar      1 FMN        -0.1211
     12 C7M         2.0850   -0.1527   -1.7495 C.3       1 FMN        -0.0435
     13 C8          0.5864   -0.9067    0.1183 C.ar      1 FMN        -0.0173
     14 C8M        -0.2342    0.3332   -0.0271 C.3       1 FMN        -0.0630
     15 C9          0.2330   -1.8421    1.0943 C.ar      1 FMN        -0.1390
     16 C9A         0.9704   -3.0274    1.2749 C.ar      1 FMN         0.1887
     17 N10         0.6547   -4.0033    2.2457 N.pl3     1 FMN        -0.5294
     18 C10         1.4328   -5.1491    2.3626 C.ar      1 FMN         0.6151
     19 C1'        -0.5012   -3.7679    3.1095 C.3       1 FMN         0.1741
     20 C2'        -0.0563   -3.0138    4.3619 C.3       1 FMN         0.1411
     21 O2'         0.9124   -3.8026    5.0539 O.3       1 FMN        -0.6334
     22 C3'        -1.2361   -2.7121    5.3074 C.3       1 FMN         0.1067
     23 O3'        -2.3794   -2.3335    4.5422 O.3       1 FMN        -0.6301
     24 C4'        -0.9268   -1.5918    6.3185 C.3       1 FMN         0.0813
     25 O4'        -1.8366   -1.6874    7.4163 O.3       1 FMN        -0.6796
     26 C5'        -1.0546   -0.1995    5.7019 C.3       1 FMN         0.1813
     27 O5'        -0.7536    0.7725    6.6985 O.3       1 FMN        -0.5642
     28 P          -1.4861    2.2478    6.6086 P.3       1 FMN         1.3127
     29 O1P        -1.0431    2.8210    5.2657 O.co2     1 FMN        -0.9243
     30 O2P        -0.9270    2.9944    7.8160 O.co2     1 FMN        -0.9243
     31 O3P        -2.9792    1.9473    6.7025 O.co2     1 FMN        -0.9243
     32 HN3         3.6607   -8.2239    2.5509 H         1 FMN         0.3334
     33 H6          3.2920   -2.4807   -1.1791 H         1 FMN         0.1447
     34 HM71        1.5822   -0.3820   -2.6964 H         1 FMN         0.0392
     35 HM72        1.8243    0.8717   -1.4550 H         1 FMN         0.0392
     36 HM73        3.1694   -0.1698   -1.9170 H         1 FMN         0.0392
     37 HM81       -1.0476    0.1680   -0.7429 H         1 FMN         0.0535
     38 HM82       -0.6692    0.6350    0.9334 H         1 FMN         0.0535
     39 HM83        0.3769    1.1733   -0.3794 H         1 FMN         0.0535
     40 H9         -0.6349   -1.6256    1.7128 H         1 FMN         0.1971
     41 H1'1       -0.9287   -4.7387    3.3617 H         1 FMN         0.1123
     42 H1'2       -1.2289   -3.2002    2.5315 H         1 FMN         0.1123
     43 H2'         0.4300   -2.0775    4.0623 H         1 FMN         0.0570
     44 HO2'        0.4737   -4.6359    5.2820 H         1 FMN         0.4322
     45 H3'        -1.4942   -3.6145    5.8764 H         1 FMN         0.0570
     46 HO3'       -3.0888   -2.1556    5.1783 H         1 FMN         0.4323
     47 H4'         0.0823   -1.7187    6.7272 H         1 FMN         0.0270
     48 HO4'       -1.6072   -0.9685    8.0236 H         1 FMN         0.4672
     49 H5'1       -0.3478   -0.0593    4.8778 H         1 FMN         0.0181
     50 H5'2       -2.0742   -0.0183    5.3482 H         1 FMN         0.0181
@<TRIPOS>BOND
     1    1    2 ar
     2    1   18 ar
     3    2    3 2
     4    2    4 ar
     5    4    5 ar
     6    4   32 1
     7    5    6 2
     8    5    7 ar
     9    7    8 ar
    10    7   18 ar
    11    8    9 ar
    12    9   10 ar
    13    9   16 ar
    14   10   11 ar
    15   10   33 1
    16   11   12 1
    17   11   13 ar
    18   12   34 1
    19   12   35 1
    20   12   36 1
    21   13   14 1
    22   13   15 ar
    23   14   37 1
    24   14   38 1
    25   14   39 1
    26   15   16 ar
    27   15   40 1
    28   16   17 ar
    29   17   18 ar
    30   17   19 1
    31   19   20 1
    32   19   41 1
    33   19   42 1
    34   20   21 1
    35   20   22 1
    36   20   43 1
    37   21   44 1
    38   22   23 1
    39   22   24 1
    40   22   45 1
    41   23   46 1
    42   24   25 1
    43   24   26 1
    44   24   47 1
    45   25   48 1
    46   26   27 1
    47   26   49 1
    48   26   50 1
    49   27   28 1
    50   28   29 2
    51   28   30 1
    52   28   31 1
@<TRIPOS>SUBSTRUCTURE
     1 FMN         1 GROUP 0 A     ****
@<TRIPOS>MOLECULE
[5-(7,8-dimethyl-2,4-dioxo-benzo[g]pteridin-10-yl)-2,3,4-trihydroxy-pentyl] phosphate
   50    52     1     0     0
SMALL
USER_CHARGES

@<TRIPOS>ATOM
      1 N1          1.2277   -6.1042    3.2212 N.2       1 FMN        -0.6988
      2 C2          2.0186   -7.2293    3.3119 C.ar      1 FMN         0.8536
      3 O2          1.7830   -8.1102    4.1421 O.2       1 FMN        -0.6019
      4 N3          3.1050   -7.3794    2.4494 N.pl3     1 FMN        -0.6223
      5 C4          3.4932   -6.4908    1.4752 C.ar      1 FMN         0.6334
      6 O4          4.4350   -6.5937    0.7081 O.2       1 FMN        -0.6125
      7 C4A         2.6001   -5.2945    1.4253 C.ar      1 FMN         0.2211
      8 N5          2.8818   -4.3956    0.5389 N.2       1 FMN        -0.4286
      9 C5A         2.0834   -3.2454    0.4374 C.ar      1 FMN         0.0170
     10 C6          2.4298   -2.2996   -0.5398 C.ar      1 FMN        -0.0553
     11 C7          1.6851   -1.1351   -0.6992 C.ar      1 FMN        -0.1211
     12 C7M         2.0850   -0.1527   -1.7495 C.3       1 FMN        -0.0435
     13 C8          0.5864   -0.9067    0.1183 C.ar      1 FMN        -0.0173
     14 C8M        -0.2342    0.3332   -0.0271 C.3       1 FMN        -0.0630
     15 C9          0.2330   -1.8421    1.0943 C.ar      1 FMN        -0.1390
     16 C9A         0.9704   -3.0274    1.2749 C.ar      1 FMN         0.1887
     17 N10         0.6547   -4.0033    2.2457 N.pl3     1 FMN        -0.5294
     18 C10         1.4328   -5.1491    2.3626 C.ar      1 FMN         0.6151
     19 C1'        -0.5012   -3.7679    3.1095 C.3       1 FMN         0.1741
     20 C2'        -1.7519   -4.3580    2.4592 C.3       1 FMN         0.1411
     21 O2'        -2.2248   -3.4496    1.4638 O.3       1 FMN        -0.6334
     22 C3'        -2.8727   -4.6164    3.4857 C.3       1 FMN         0.1067
     23 O3'        -3.8011   -5.5609    2.9547 O.3       1 FMN        -0.6301
     24 C4'        -3.6390   -3.3382    3.8759 C.3       1 FMN         0.0813
     25 O4'        -2.7256   -2.4018    4.4511 O.3       1 FMN        -0.6796
     26 C5'        -4.7530   -3.6124    4.8852 C.3       1 FMN         0.1813
     27 O5'        -5.4075   -2.3848    5.1903 O.3       1 FMN        -0.5642
     28 P          -6.6593   -2.4036    6.2644 P.3       1 FMN         1.3127
     29 O1P        -7.6974   -3.3285    5.6359 O.co2     1 FMN        -0.9243
     30 O2P        -7.0908   -0.9416    6.3302 O.co2     1 FMN        -0.9243
     31 O3P        -6.0514   -2.9295    7.5614 O.co2     1 FMN        -0.9243
     32 HN3         3.6607   -8.2239    2.5509 H         1 FMN         0.3334
     33 H6          3.2920   -2.4807   -1.1791 H         1 FMN         0.1447
     34 HM71        1.5822   -0.3820   -2.6964 H         1 FMN         0.0392
     35 HM72        1.8243    0.8717   -1.4550 H         1 FMN         0.0392
     36 HM73        3.1694   -0.1698   -1.9170 H         1 FMN         0.0392
     37 HM81       -1.0476    0.1680   -0.7429 H         1 FMN         0.0535
     38 HM82       -0.6692    0.6350    0.9334 H         1 FMN         0.0535
     39 HM83        0.3769    1.1733   -0.3794 H         1 FMN         0.0535
     40 H9         -0.6349   -1.6256    1.7128 H         1 FMN         0.1971
     41 H1'1       -0.5966   -2.6906    3.2480 H         1 FMN         0.1123
     42 H1'2       -0.2877   -4.2309    4.0717 H         1 FMN         0.1123
     43 H2'        -1.4853   -5.2946    1.9549 H         1 FMN         0.0570
     44 HO2'       -3.0142   -3.8561    1.0759 H         1 FMN         0.4322
     45 H3'        -2.4442   -5.0425    4.4020 H         1 FMN         0.0570
     46 HO3'       -3.2987   -6.3713    2.7804 H         1 FMN         0.4323
     47 H4'        -4.0636   -2.8641    2.9835 H         1 FMN         0.0270
     48 HO4'       -3.2470   -1.6182    4.6802 H         1 FMN         0.4672
     49 H5'1       -5.5043   -4.2963    4.4775 H         1 FMN         0.0181
     50 H5'2       -4.3482   -4.0216    5.8160 H         1 FMN         0.0181
@<TRIPOS>BOND
     1    1    2 ar
     2    1   18 ar
     3    2    3 2
     4    2    4 ar
     5    4    5 ar
     6    4   32 1
     7    5    6 2
     8    5    7 ar
     9    7    8 ar
    10    7   18 ar
    11    8    9 ar
    12    9   10 ar
    13    9   16 ar
    14   10   11 ar
    15   10   33 1
    16   11   12 1
    17   11   13 ar
    18   12   34 1
    19   12   35 1
    20   12   36 1
    21   13   14 1
    22   13   15 ar
    23   14   37 1
    24   14   38 1
    25   14   39 1
    26   15   16 ar
    27   15   40 1
    28   16   17 ar
    29   17   18 ar
    30   17   19 1
    31   19   20 1
    32   19   41 1
    33   19   42 1
    34   20   21 1
    35   20   22 1
    36   20   43 1
    37   21   44 1
    38   22   23 1
    39   22   24 1
    40   22   45 1
    41   23   46 1
    42   24   25 1
    43   24   26 1
    44   24   47 1
    45   25   48 1
    46   26   27 1
    47   26   49 1
    48   26   50 1
    49   27   28 1
    50   28   29 2
    51   28   30 1
    52   28   31 1
@<TRIPOS>SUBSTRUCTURE
     1 FMN         1 GROUP 0 A     ****
@<TRIPOS>MOLECULE
[5-(7,8-dimethyl-2,4-dioxo-benzo[g]pteridin-10-yl)-2,3,4-trihydroxy-pentyl] phosphate
   50    52     1     0     0
SMALL
USER_CHARGES

@<TRIPOS>ATOM
      1 N1          1.2277   -6.1042    3.2212 N.2       1 FMN        -0.6988
      2 C2          2.0186   -7.2293    3.3119 C.ar      1 FMN         0.8536
      3 O2          1.7830   -8.1102    4.1421 O.2       1 FMN        -0.6019
      4 N3          3.1050   -7.3794    2.4494 N.pl3     1 FMN        -0.6223
      5 C4          3.4932   -6.4908    1.4752 C.ar      1 FMN         0.6334
      6 O4          4.4350   -6.5937    0.7081 O.2       1 FMN        -0.6125
      7 C4A         2.6001   -5.2945    1.4253 C.ar      1 FMN         0.2211
      8 N5          2.8818   -4.3956    0.5389 N.2       1 FMN        -0.4286
      9 C5A         2.0834   -3.2454    0.4374 C.ar      1 FMN         0.0170
     10 C6          2.4298   -2.2996   -0.5398 C.ar      1 FMN        -0.0553
     11 C7          1.6851   -1.1351   -0.6992 C.ar      1 FMN        -0.1211
     12 C7M         2.0850   -0.1527   -1.7495 C.3       1 FMN        -0.0435
     13 C8          0.5864   -0.9067    0.1183 C.ar      1 FMN        -0.0173
     14 C8M        -0.2342    0.3332   -0.0271 C.3       1 FMN        -0.0630
     15 C9          0.2330   -1.8421    1.0943 C.ar      1 FMN        -0.1390
     16 C9A         0.9704   -3.0274    1.2749 C.ar      1 FMN         0.1887
     17 N10         0.6547   -4.0033    2.2457 N.pl3     1 FMN        -0.5294
     18 C10         1.4328   -5.1491    2.3626 C.ar      1 FMN         0.6151
     19 C1'        -0.5012   -3.7679    3.1095 C.3       1 FMN         0.1741
     20 C2'        -1.7519   -4.3580    2.4592 C.3       1 FMN         0.1411
     21 O2'        -1.9553   -3.7249    1.1953 O.3       1 FMN        -0.6334
     22 C3'        -3.0070   -4.1638    3.3332 C.3       1 FMN         0.1067
     23 O3'        -3.2338   -2.7710    3.5442 O.3       1 FMN        -0.6301
     24 C4'        -2.9003   -4.8589    4.7039 C.3       1 FMN         0.0813
     25 O4'        -2.7181   -6.2621    4.5044 O.3       1 FMN        -0.6796
     26 C5'        -4.1468   -4.6482    5.5621 C.3       1 FMN         0.1813
     27 O5'        -3.8122   -4.8939    6.9245 O.3       1 FMN        -0.5642
     28 P          -4.0057   -3.6733    8.0171 P.3       1 FMN         1.3127
     29 O1P        -3.0927   -2.5569    7.5188 O.co2     1 FMN        -0.9243
     30 O2P        -3.5553   -4.3015    9.3326 O.co2     1 FMN        -0.9243
     31 O3P        -5.4936   -3.3387    7.9674 O.co2     1 FMN        -0.9243
     32 HN3         3.6607   -8.2239    2.5509 H         1 FMN         0.3334
     33 H6          3.2920   -2.4807   -1.1791 H         1 FMN         0.1447
     34 HM71        1.5822   -0.3820   -2.6964 H         1 FMN         0.0392
     35 HM72        1.8243    0.8717   -1.4550 H         1 FMN         0.0392
     36 HM73        3.1694   -0.1698   -1.9170 H         1 FMN         0.0392
     37 HM81       -1.0476    0.1680   -0.7429 H         1 FMN         0.0535
     38 HM82       -0.6692    0.6350    0.9334 H         1 FMN         0.0535
     39 HM83        0.3769    1.1733   -0.3794 H         1 FMN         0.0535
     40 H9         -0.6349   -1.6256    1.7128 H         1 FMN         0.1971
     41 H1'1       -0.5966   -2.6906    3.2480 H         1 FMN         0.1123
     42 H1'2       -0.2877   -4.2309    4.0717 H         1 FMN         0.1123
     43 H2'        -1.5888   -5.4264    2.2735 H         1 FMN         0.0570
     44 HO2'       -2.7528   -4.1231    0.8155 H         1 FMN         0.4322
     45 H3'        -3.8843   -4.5745    2.8172 H         1 FMN         0.0570
     46 HO3'       -3.3591   -2.3774    2.6674 H         1 FMN         0.4323
     47 H4'        -2.0190   -4.4956    5.2450 H         1 FMN         0.0270
     48 HO4'       -2.6564   -6.6569    5.3868 H         1 FMN         0.4672
     49 H5'1       -4.5136   -3.6192    5.4911 H         1 FMN         0.0181
     50 H5'2       -4.9423   -5.3438    5.2773 H         1 FMN         0.0181
@<TRIPOS>BOND
     1    1    2 ar
     2    1   18 ar
     3    2    3 2
     4    2    4 ar
     5    4    5 ar
     6    4   32 1
     7    5    6 2
     8    5    7 ar
     9    7    8 ar
    10    7   18 ar
    11    8    9 ar
    12    9   10 ar
    13    9   16 ar
    14   10   11 ar
    15   10   33 1
    16   11   12 1
    17   11   13 ar
    18   12   34 1
    19   12   35 1
    20   12   36 1
    21   13   14 1
    22   13   15 ar
    23   14   37 1
    24   14   38 1
    25   14   39 1
    26   15   16 ar
    27   15   40 1
    28   16   17 ar
    29   17   18 ar
    30   17   19 1
    31   19   20 1
    32   19   41 1
    33   19   42 1
    34   20   21 1
    35   20   22 1
    36   20   43 1
    37   21   44 1
    38   22   23 1
    39   22   24 1
    40   22   45 1
    41   23   46 1
    42   24   25 1
    43   24   26 1
    44   24   47 1
    45   25   48 1
    46   26   27 1
    47   26   49 1
    48   26   50 1
    49   27   28 1
    50   28   29 2
    51   28   30 1
    52   28   31 1
@<TRIPOS>SUBSTRUCTURE
     1 FMN         1 GROUP 0 A     ****
@<TRIPOS>MOLECULE
[5-(7,8-dimethyl-2,4-dioxo-benzo[g]pteridin-10-yl)-2,3,4-trihydroxy-pentyl] phosphate
   50    52     1     0     0
SMALL
USER_CHARGES

@<TRIPOS>ATOM
      1 N1          1.2277   -6.1042    3.2212 N.2       1 FMN        -0.6988
      2 C2          2.0186   -7.2293    3.3119 C.ar      1 FMN         0.8536
      3 O2          1.7830   -8.1102    4.1421 O.2       1 FMN        -0.6019
      4 N3          3.1050   -7.3794    2.4494 N.pl3     1 FMN        -0.6223
      5 C4          3.4932   -6.4908    1.4752 C.ar      1 FMN         0.6334
      6 O4          4.4350   -6.5937    0.7081 O.2       1 FMN        -0.6125
      7 C4A         2.6001   -5.2945    1.4253 C.ar      1 FMN         0.2211
      8 N5          2.8818   -4.3956    0.5389 N.2       1 FMN        -0.4286
      9 C5A         2.0834   -3.2454    0.4374 C.ar      1 FMN         0.0170
     10 C6          2.4298   -2.2996   -0.5398 C.ar      1 FMN        -0.0553
     11 C7          1.6851   -1.1351   -0.6992 C.ar      1 FMN        -0.1211
     12 C7M         2.0850   -0.1527   -1.7495 C.3       1 FMN        -0.0435
     13 C8          0.5864   -0.9067    0.1183 C.ar      1 FMN        -0.0173
     14 C8M        -0.2342    0.3332   -0.0271 C.3       1 FMN        -0.0630
     15 C9          0.2330   -1.8421    1.0943 C.ar      1 FMN        -0.1390
     16 C9A         0.9704   -3.0274    1.2749 C.ar      1 FMN         0.1887
     17 N10         0.6547   -4.0033    2.2457 N.pl3     1 FMN        -0.5294
     18 C10         1.4328   -5.1491    2.3626 C.ar      1 FMN         0.6151
     19 C1'        -0.5012   -3.7679    3.1095 C.3       1 FMN         0.1741
     20 C2'        -1.7519   -4.3580    2.4592 C.3       1 FMN         0.1411
     21 O2'        -2.2248   -3.4496    1.4638 O.3       1 FMN        -0.6334
     22 C3'        -2.8727   -4.6164    3.4857 C.3       1 FMN         0.1067
     23 O3'        -2.4138   -5.5356    4.4758 O.3       1 FMN        -0.6301
     24 C4'        -4.1564   -5.1800    2.8473 C.3       1 FMN         0.0813
     25 O4'        -4.6502   -4.2456    1.8854 O.3       1 FMN        -0.6796
     26 C5'        -5.2535   -5.4408    3.8784 C.3       1 FMN         0.1813
     27 O5'        -6.3989   -5.9577    3.2083 O.3       1 FMN        -0.5642
     28 P          -7.7360   -6.3266    4.1011 P.3       1 FMN         1.3127
     29 O1P        -7.2648   -7.3933    5.0850 O.co2     1 FMN        -0.9243
     30 O2P        -8.7266   -6.8384    3.0596 O.co2     1 FMN        -0.9243
     31 O3P        -8.1458   -5.0083    4.7511 O.co2     1 FMN        -0.9243
     32 HN3         3.6607   -8.2239    2.5509 H         1 FMN         0.3334
     33 H6          3.2920   -2.4807   -1.1791 H         1 FMN         0.1447
     34 HM71        1.5822   -0.3820   -2.6964 H         1 FMN         0.0392
     35 HM72        1.8243    0.8717   -1.4550 H         1 FMN         0.0392
     36 HM73        3.1694   -0.1698   -1.9170 H         1 FMN         0.0392
     37 HM81       -1.0476    0.1680   -0.7429 H         1 FMN         0.0535
     38 HM82       -0.6692    0.6350    0.9334 H         1 FMN         0.0535
     39 HM83        0.3769    1.1733   -0.3794 H         1 FMN         0.0535
     40 H9         -0.6349   -1.6256    1.7128 H         1 FMN         0.1971
     41 H1'1       -0.5966   -2.6906    3.2480 H         1 FMN         0.1123
     42 H1'2       -0.2877   -4.2309    4.0717 H         1 FMN         0.1123
     43 H2'        -1.4853   -5.2946    1.9549 H         1 FMN         0.0570
     44 HO2'       -3.0142   -3.8561    1.0759 H         1 FMN         0.4322
     45 H3'        -3.1346   -3.6782    3.9915 H         1 FMN         0.0570
     46 HO3'       -2.1806   -6.3509    4.0064 H         1 FMN         0.4323
     47 H4'        -3.9348   -6.1079    2.3075 H         1 FMN         0.0270
     48 HO4'       -5.4528   -4.6383    1.5113 H         1 FMN         0.4672
     49 H5'1       -4.9395   -6.1831    4.6192 H         1 FMN         0.0181
     50 H5'2       -5.5453   -4.5153    4.3845 H         1 FMN         0.0181
@<TRIPOS>BOND
     1    1    2 ar
     2    1   18 ar
     3    2    3 2
     4    2    4 ar
     5    4    5 ar
     6    4   32 1
     7    5    6 2
     8    5    7 ar
     9    7    8 ar
    10    7   18 ar
    11    8    9 ar
    12    9   10 ar
    13    9   16 ar
    14   10   11 ar
    15   10   33 1
    16   11   12 1
    17   11   13 ar
    18   12   34 1
    19   12   35 1
    20   12   36 1
    21   13   14 1
    22   13   15 ar
    23   14   37 1
    24   14   38 1
    25   14   39 1
    26   15   16 ar
    27   15   40 1
    28   16   17 ar
    29   17   18 ar
    30   17   19 1
    31   19   20 1
    32   19   41 1
    33   19   42 1
    34   20   21 1
    35   20   22 1
    36   20   43 1
    37   21   44 1
    38   22   23 1
    39   22   24 1
    40   22   45 1
    41   23   46 1
    42   24   25 1
    43   24   26 1
    44   24   47 1
    45   25   48 1
    46   26   27 1
    47   26   49 1
    48   26   50 1
    49   27   28 1
    50   28   29 2
    51   28   30 1
    52   28   31 1
@<TRIPOS>SUBSTRUCTURE
     1 FMN         1 GROUP 0 A     ****
@<TRIPOS>MOLECULE
[5-(7,8-dimethyl-2,4-dioxo-benzo[g]pteridin-10-yl)-2,3,4-trihydroxy-pentyl] phosphate
   50    52     1     0     0
SMALL
USER_CHARGES

@<TRIPOS>ATOM
      1 N1          1.2277   -6.1042    3.2212 N.2       1 FMN        -0.6988
      2 C2          2.0186   -7.2293    3.3119 C.ar      1 FMN         0.8536
      3 O2          1.7830   -8.1102    4.1421 O.2       1 FMN        -0.6019
      4 N3          3.1050   -7.3794    2.4494 N.pl3     1 FMN        -0.6223
      5 C4          3.4932   -6.4908    1.4752 C.ar      1 FMN         0.6334
      6 O4          4.4350   -6.5937    0.7081 O.2       1 FMN        -0.6125
      7 C4A         2.6001   -5.2945    1.4253 C.ar      1 FMN         0.2211
      8 N5          2.8818   -4.3956    0.5389 N.2       1 FMN        -0.4286
      9 C5A         2.0834   -3.2454    0.4374 C.ar      1 FMN         0.0170
     10 C6          2.4298   -2.2996   -0.5398 C.ar      1 FMN        -0.0553
     11 C7          1.6851   -1.1351   -0.6992 C.ar      1 FMN        -0.1211
     12 C7M         2.0850   -0.1527   -1.7495 C.3       1 FMN        -0.0435
     13 C8          0.5864   -0.9067    0.1183 C.ar      1 FMN        -0.0173
     14 C8M        -0.2342    0.3332   -0.0271 C.3       1 FMN        -0.0630
     15 C9          0.2330   -1.8421    1.0943 C.ar      1 FMN        -0.1390
     16 C9A         0.9704   -3.0274    1.2749 C.ar      1 FMN         0.1887
     17 N10         0.6547   -4.0033    2.2457 N.pl3     1 FMN        -0.5294
     18 C10         1.4328   -5.1491    2.3626 C.ar      1 FMN         0.6151
     19 C1'        -0.5012   -3.7679    3.1095 C.3       1 FMN         0.1741
     20 C2'        -1.7519   -4.3580    2.4592 C.3       1 FMN         0.1411
     21 O2'        -2.2248   -3.4496    1.4638 O.3       1 FMN        -0.6334
     22 C3'        -2.8727   -4.6164    3.4857 C.3       1 FMN         0.1067
     23 O3'        -3.8011   -5.5609    2.9547 O.3       1 FMN        -0.6301
     24 C4'        -3.6390   -3.3382    3.8759 C.3       1 FMN         0.0813
     25 O4'        -2.7256   -2.4018    4.4511 O.3       1 FMN        -0.6796
     26 C5'        -4.7530   -3.6124    4.8852 C.3       1 FMN         0.1813
     27 O5'        -4.1774   -4.1678    6.0636 O.3       1 FMN        -0.5642
     28 P          -5.0803   -5.2127    6.9659 P.3       1 FMN         1.3127
     29 O1P        -6.3006   -4.4028    7.3940 O.co2     1 FMN        -0.9243
     30 O2P        -4.1483   -5.5837    8.1155 O.co2     1 FMN        -0.9243
     31 O3P        -5.3932   -6.3709    6.0231 O.co2     1 FMN        -0.9243
     32 HN3         3.6607   -8.2239    2.5509 H         1 FMN         0.3334
     33 H6          3.2920   -2.4807   -1.1791 H         1 FMN         0.1447
     34 HM71        1.5822   -0.3820   -2.6964 H         1 FMN         0.0392
     35 HM72        1.8243    0.8717   -1.4550 H         1 FMN         0.0392
     36 HM73        3.1694   -0.1698   -1.9170 H         1 FMN         0.0392
     37 HM81       -1.0476    0.1680   -0.7429 H         1 FMN         0.0535
     38 HM82       -0.6692    0.6350    0.9334 H         1 FMN         0.0535
     39 HM83        0.3769    1.1733   -0.3794 H         1 FMN         0.0535
     40 H9         -0.6349   -1.6256    1.7128 H         1 FMN         0.1971
     41 H1'1       -0.5966   -2.6906    3.2480 H         1 FMN         0.1123
     42 H1'2       -0.2877   -4.2309    4.0717 H         1 FMN         0.1123
     43 H2'        -1.4853   -5.2946    1.9549 H         1 FMN         0.0570
     44 HO2'       -3.0142   -3.8561    1.0759 H         1 FMN         0.4322
     45 H3'        -2.4442   -5.0425    4.4020 H         1 FMN         0.0570
     46 HO3'       -4.1589   -5.1682    2.1440 H         1 FMN         0.4323
     47 H4'        -4.0636   -2.8641    2.9835 H         1 FMN         0.0270
     48 HO4'       -3.2470   -1.6182    4.6802 H         1 FMN         0.4672
     49 H5'1       -5.2707   -2.6912    5.1714 H         1 FMN         0.0181
     50 H5'2       -5.4747   -4.3328    4.4880 H         1 FMN         0.0181
@<TRIPOS>BOND
     1    1    2 ar
     2    1   18 ar
     3    2    3 2
     4    2    4 ar
     5    4    5 ar
     6    4   32 1
     7    5    6 2
     8    5    7 ar
     9    7    8 ar
    10    7   18 ar
    11    8    9 ar
    12    9   10 ar
    13    9   16 ar
    14   10   11 ar
    15   10   33 1
    16   11   12 1
    17   11   13 ar
    18   12   34 1
    19   12   35 1
    20   12   36 1
    21   13   14 1
    22   13   15 ar
    23   14   37 1
    24   14   38 1
    25   14   39 1
    26   15   16 ar
    27   15   40 1
    28   16   17 ar
    29   17   18 ar
    30   17   19 1
    31   19   20 1
    32   19   41 1
    33   19   42 1
    34   20   21 1
    35   20   22 1
    36   20   43 1
    37   21   44 1
    38   22   23 1
    39   22   24 1
    40   22   45 1
    41   23   46 1
    42   24   25 1
    43   24   26 1
    44   24   47 1
    45   25   48 1
    46   26   27 1
    47   26   49 1
    48   26   50 1
    49   27   28 1
    50   28   29 2
    51   28   30 1
    52   28   31 1
@<TRIPOS>SUBSTRUCTURE
     1 FMN         1 GROUP 0 A     ****
@<TRIPOS>MOLECULE
[5-(7,8-dimethyl-2,4-dioxo-benzo[g]pteridin-10-yl)-2,3,4-trihydroxy-pentyl] phosphate
   50    52     1     0     0
SMALL
USER_CHARGES

@<TRIPOS>ATOM
      1 N1          1.2277   -6.1042    3.2212 N.2       1 FMN        -0.6988
      2 C2          2.0186   -7.2293    3.3119 C.ar      1 FMN         0.8536
      3 O2          1.7830   -8.1102    4.1421 O.2       1 FMN        -0.6019
      4 N3          3.1050   -7.3794    2.4494 N.pl3     1 FMN        -0.6223
      5 C4          3.4932   -6.4908    1.4752 C.ar      1 FMN         0.6334
      6 O4          4.4350   -6.5937    0.7081 O.2       1 FMN        -0.6125
      7 C4A         2.6001   -5.2945    1.4253 C.ar      1 FMN         0.2211
      8 N5          2.8818   -4.3956    0.5389 N.2       1 FMN        -0.4286
      9 C5A         2.0834   -3.2454    0.4374 C.ar      1 FMN         0.0170
     10 C6          2.4298   -2.2996   -0.5398 C.ar      1 FMN        -0.0553
     11 C7          1.6851   -1.1351   -0.6992 C.ar      1 FMN        -0.1211
     12 C7M         2.0850   -0.1527   -1.7495 C.3       1 FMN        -0.0435
     13 C8          0.5864   -0.9067    0.1183 C.ar      1 FMN        -0.0173
     14 C8M        -0.2342    0.3332   -0.0271 C.3       1 FMN        -0.0630
     15 C9          0.2330   -1.8421    1.0943 C.ar      1 FMN        -0.1390
     16 C9A         0.9704   -3.0274    1.2749 C.ar      1 FMN         0.1887
     17 N10         0.6547   -4.0033    2.2457 N.pl3     1 FMN        -0.5294
     18 C10         1.4328   -5.1491    2.3626 C.ar      1 FMN         0.6151
     19 C1'        -0.5012   -3.7679    3.1095 C.3       1 FMN         0.1741
     20 C2'        -1.7519   -4.3580    2.4592 C.3       1 FMN         0.1411
     21 O2'        -1.9553   -3.7249    1.1953 O.3       1 FMN        -0.6334
     22 C3'        -3.0070   -4.1638    3.3332 C.3       1 FMN         0.1067
     23 O3'        -2.6744   -4.3773    4.7043 O.3       1 FMN        -0.6301
     24 C4'        -4.1593   -5.1125    2.9522 C.3       1 FMN         0.0813
     25 O4'        -4.5311   -4.8753    1.5929 O.3       1 FMN        -0.6796
     26 C5'        -5.3915   -4.9154    3.8340 C.3       1 FMN         0.1813
     27 O5'        -5.8484   -3.5741    3.6902 O.3       1 FMN        -0.5642
     28 P          -6.6074   -2.8577    4.9675 P.3       1 FMN         1.3127
     29 O1P        -7.8318   -3.7293    5.2312 O.co2     1 FMN        -0.9243
     30 O2P        -6.9402   -1.4635    4.4445 O.co2     1 FMN        -0.9243
     31 O3P        -5.5741   -2.8683    6.0902 O.co2     1 FMN        -0.9243
     32 HN3         3.6607   -8.2239    2.5509 H         1 FMN         0.3334
     33 H6          3.2920   -2.4807   -1.1791 H         1 FMN         0.1447
     34 HM71        1.5822   -0.3820   -2.6964 H         1 FMN         0.0392
     35 HM72        1.8243    0.8717   -1.4550 H         1 FMN         0.0392
     36 HM73        3.1694   -0.1698   -1.9170 H         1 FMN         0.0392
     37 HM81       -1.0476    0.1680   -0.7429 H         1 FMN         0.0535
     38 HM82       -0.6692    0.6350    0.9334 H         1 FMN         0.0535
     39 HM83        0.3769    1.1733   -0.3794 H         1 FMN         0.0535
     40 H9         -0.6349   -1.6256    1.7128 H         1 FMN         0.1971
     41 H1'1       -0.5966   -2.6906    3.2480 H         1 FMN         0.1123
     42 H1'2       -0.2877   -4.2309    4.0717 H         1 FMN         0.1123
     43 H2'        -1.5888   -5.4264    2.2735 H         1 FMN         0.0570
     44 HO2'       -2.7528   -4.1231    0.8155 H         1 FMN         0.4322
     45 H3'        -3.3733   -3.1343    3.2310 H         1 FMN         0.0570
     46 HO3'       -2.3459   -5.2869    4.7687 H         1 FMN         0.4323
     47 H4'        -3.8279   -6.1554    3.0160 H         1 FMN         0.0270
     48 HO4'       -5.2541   -5.4896    1.3971 H         1 FMN         0.4672
     49 H5'1       -6.2096   -5.5783    3.5343 H         1 FMN         0.0181
     50 H5'2       -5.1506   -5.0805    4.8887 H         1 FMN         0.0181
@<TRIPOS>BOND
     1    1    2 ar
     2    1   18 ar
     3    2    3 2
     4    2    4 ar
     5    4    5 ar
     6    4   32 1
     7    5    6 2
     8    5    7 ar
     9    7    8 ar
    10    7   18 ar
    11    8    9 ar
    12    9   10 ar
    13    9   16 ar
    14   10   11 ar
    15   10   33 1
    16   11   12 1
    17   11   13 ar
    18   12   34 1
    19   12   35 1
    20   12   36 1
    21   13   14 1
    22   13   15 ar
    23   14   37 1
    24   14   38 1
    25   14   39 1
    26   15   16 ar
    27   15   40 1
    28   16   17 ar
    29   17   18 ar
    30   17   19 1
    31   19   20 1
    32   19   41 1
    33   19   42 1
    34   20   21 1
    35   20   22 1
    36   20   43 1
    37   21   44 1
    38   22   23 1
    39   22   24 1
    40   22   45 1
    41   23   46 1
    42   24   25 1
    43   24   26 1
    44   24   47 1
    45   25   48 1
    46   26   27 1
    47   26   49 1
    48   26   50 1
    49   27   28 1
    50   28   29 2
    51   28   30 1
    52   28   31 1
@<TRIPOS>SUBSTRUCTURE
     1 FMN         1 GROUP 0 A     ****
@<TRIPOS>MOLECULE
[5-(7,8-dimethyl-2,4-dioxo-benzo[g]pteridin-10-yl)-2,3,4-trihydroxy-pentyl] phosphate
   50    52     1     0     0
SMALL
USER_CHARGES

@<TRIPOS>ATOM
      1 N1          1.2277   -6.1042    3.2212 N.2       1 FMN        -0.6988
      2 C2          2.0186   -7.2293    3.3119 C.ar      1 FMN         0.8536
      3 O2          1.7830   -8.1102    4.1421 O.2       1 FMN        -0.6019
      4 N3          3.1050   -7.3794    2.4494 N.pl3     1 FMN        -0.6223
      5 C4          3.4932   -6.4908    1.4752 C.ar      1 FMN         0.6334
      6 O4          4.4350   -6.5937    0.7081 O.2       1 FMN        -0.6125
      7 C4A         2.6001   -5.2945    1.4253 C.ar      1 FMN         0.2211
      8 N5          2.8818   -4.3956    0.5389 N.2       1 FMN        -0.4286
      9 C5A         2.0834   -3.2454    0.4374 C.ar      1 FMN         0.0170
     10 C6          2.4298   -2.2996   -0.5398 C.ar      1 FMN        -0.0553
     11 C7          1.6851   -1.1351   -0.6992 C.ar      1 FMN        -0.1211
     12 C7M         2.0850   -0.1527   -1.7495 C.3       1 FMN        -0.0435
     13 C8          0.5864   -0.9067    0.1183 C.ar      1 FMN        -0.0173
     14 C8M        -0.2342    0.3332   -0.0271 C.3       1 FMN        -0.0630
     15 C9          0.2330   -1.8421    1.0943 C.ar      1 FMN        -0.1390
     16 C9A         0.9704   -3.0274    1.2749 C.ar      1 FMN         0.1887
     17 N10         0.6547   -4.0033    2.2457 N.pl3     1 FMN        -0.5294
     18 C10         1.4328   -5.1491    2.3626 C.ar      1 FMN         0.6151
     19 C1'        -0.5012   -3.7679    3.1095 C.3       1 FMN         0.1741
     20 C2'        -1.7519   -4.3580    2.4592 C.3       1 FMN         0.1411
     21 O2'        -2.2248   -3.4496    1.4638 O.3       1 FMN        -0.6334
     22 C3'        -2.8727   -4.6164    3.4857 C.3       1 FMN         0.1067
     23 O3'        -2.9224   -3.5412    4.4226 O.3       1 FMN        -0.6301
     24 C4'        -2.6891   -5.9359    4.2592 C.3       1 FMN         0.0813
     25 O4'        -1.4481   -5.8953    4.9665 O.3       1 FMN        -0.6796
     26 C5'        -2.6831   -7.1549    3.3378 C.3       1 FMN         0.1813
     27 O5'        -2.9774   -8.3147    4.1101 O.3       1 FMN        -0.5642
     28 P          -3.0327   -9.7769    3.3485 P.3       1 FMN         1.3127
     29 O1P        -4.1382   -9.6315    2.3070 O.co2     1 FMN        -0.9243
     30 O2P        -3.3667  -10.7501    4.4751 O.co2     1 FMN        -0.9243
     31 O3P        -1.6364   -9.9633    2.7620 O.co2     1 FMN        -0.9243
     32 HN3         3.6607   -8.2239    2.5509 H         1 FMN         0.3334
     33 H6          3.2920   -2.4807   -1.1791 H         1 FMN         0.1447
     34 HM71        1.5822   -0.3820   -2.6964 H         1 FMN         0.0392
     35 HM72        1.8243    0.8717   -1.4550 H         1 FMN         0.0392
     36 HM73        3.1694   -0.1698   -1.9170 H         1 FMN         0.0392
     37 HM81       -1.0476    0.1680   -0.7429 H         1 FMN         0.0535
     38 HM82       -0.6692    0.6350    0.9334 H         1 FMN         0.0535
     39 HM83        0.3769    1.1733   -0.3794 H         1 FMN         0.0535
     40 H9         -0.6349   -1.6256    1.7128 H         1 FMN         0.1971
     41 H1'1       -0.5966   -2.6906    3.2480 H         1 FMN         0.1123
     42 H1'2       -0.2877   -4.2309    4.0717 H         1 FMN         0.1123
     43 H2'        -1.4853   -5.2946    1.9549 H         1 FMN         0.0570
     44 HO2'       -3.0142   -3.8561    1.0759 H         1 FMN         0.4322
     45 H3'        -3.8416   -4.6616    2.9720 H         1 FMN         0.0570
     46 HO3'       -3.1018   -2.7385    3.9099 H         1 FMN         0.4323
     47 H4'        -3.4810   -6.0488    5.0086 H         1 FMN         0.0270
     48 HO4'       -1.3743   -6.7395    5.4358 H         1 FMN         0.4672
     49 H5'1       -3.4476   -7.0726    2.5586 H         1 FMN         0.0181
     50 H5'2       -1.7003   -7.2944    2.8770 H         1 FMN         0.0181
@<TRIPOS>BOND
     1    1    2 ar
     2    1   18 ar
     3    2    3 2
     4    2    4 ar
     5    4    5 ar
     6    4   32 1
     7    5    6 2
     8    5    7 ar
     9    7    8 ar
    10    7   18 ar
    11    8    9 ar
    12    9   10 ar
    13    9   16 ar
    14   10   11 ar
    15   10   33 1
    16   11   12 1
    17   11   13 ar
    18   12   34 1
    19   12   35 1
    20   12   36 1
    21   13   14 1
    22   13   15 ar
    23   14   37 1
    24   14   38 1
    25   14   39 1
    26   15   16 ar
    27   15   40 1
    28   16   17 ar
    29   17   18 ar
    30   17   19 1
    31   19   20 1
    32   19   41 1
    33   19   42 1
    34   20   21 1
    35   20   22 1
    36   20   43 1
    37   21   44 1
    38   22   23 1
    39   22   24 1
    40   22   45 1
    41   23   46 1
    42   24   25 1
    43   24   26 1
    44   24   47 1
    45   25   48 1
    46   26   27 1
    47   26   49 1
    48   26   50 1
    49   27   28 1
    50   28   29 2
    51   28   30 1
    52   28   31 1
@<TRIPOS>SUBSTRUCTURE
     1 FMN         1 GROUP 0 A     ****
@<TRIPOS>MOLECULE
[5-(7,8-dimethyl-2,4-dioxo-benzo[g]pteridin-10-yl)-2,3,4-trihydroxy-pentyl] phosphate
   50    52     1     0     0
SMALL
USER_CHARGES

@<TRIPOS>ATOM
      1 N1          1.2277   -6.1042    3.2212 N.2       1 FMN        -0.6988
      2 C2          2.0186   -7.2293    3.3119 C.ar      1 FMN         0.8536
      3 O2          1.7830   -8.1102    4.1421 O.2       1 FMN        -0.6019
      4 N3          3.1050   -7.3794    2.4494 N.pl3     1 FMN        -0.6223
      5 C4          3.4932   -6.4908    1.4752 C.ar      1 FMN         0.6334
      6 O4          4.4350   -6.5937    0.7081 O.2       1 FMN        -0.6125
      7 C4A         2.6001   -5.2945    1.4253 C.ar      1 FMN         0.2211
      8 N5          2.8818   -4.3956    0.5389 N.2       1 FMN        -0.4286
      9 C5A         2.0834   -3.2454    0.4374 C.ar      1 FMN         0.0170
     10 C6          2.4298   -2.2996   -0.5398 C.ar      1 FMN        -0.0553
     11 C7          1.6851   -1.1351   -0.6992 C.ar      1 FMN        -0.1211
     12 C7M         2.0850   -0.1527   -1.7495 C.3       1 FMN        -0.0435
     13 C8          0.5864   -0.9067    0.1183 C.ar      1 FMN        -0.0173
     14 C8M        -0.2342    0.3332   -0.0271 C.3       1 FMN        -0.0630
     15 C9          0.2330   -1.8421    1.0943 C.ar      1 FMN        -0.1390
     16 C9A         0.9704   -3.0274    1.2749 C.ar      1 FMN         0.1887
     17 N10         0.6547   -4.0033    2.2457 N.pl3     1 FMN        -0.5294
     18 C10         1.4328   -5.1491    2.3626 C.ar      1 FMN         0.6151
     19 C1'        -0.5012   -3.7679    3.1095 C.3       1 FMN         0.1741
     20 C2'        -1.7519   -4.3580    2.4592 C.3       1 FMN         0.1411
     21 O2'        -2.2248   -3.4496    1.4638 O.3       1 FMN        -0.6334
     22 C3'        -2.8727   -4.6164    3.4857 C.3       1 FMN         0.1067
     23 O3'        -4.0117   -5.1654    2.8243 O.3       1 FMN        -0.6301
     24 C4'        -3.3058   -3.3439    4.2383 C.3       1 FMN         0.0813
     25 O4'        -3.9710   -3.7179    5.4465 O.3       1 FMN        -0.6796
     26 C5'        -4.2516   -2.4727    3.4129 C.3       1 FMN         0.1813
     27 O5'        -4.6013   -1.3235    4.1780 O.3       1 FMN        -0.5642
     28 P          -5.6213   -0.2118    3.5110 P.3       1 FMN         1.3127
     29 O1P        -4.8985    0.2777    2.2595 O.co2     1 FMN        -0.9243
     30 O2P        -5.7550    0.8455    4.6029 O.co2     1 FMN        -0.9243
     31 O3P        -6.9087   -0.9822    3.2331 O.co2     1 FMN        -0.9243
     32 HN3         3.6607   -8.2239    2.5509 H         1 FMN         0.3334
     33 H6          3.2920   -2.4807   -1.1791 H         1 FMN         0.1447
     34 HM71        1.5822   -0.3820   -2.6964 H         1 FMN         0.0392
     35 HM72        1.8243    0.8717   -1.4550 H         1 FMN         0.0392
     36 HM73        3.1694   -0.1698   -1.9170 H         1 FMN         0.0392
     37 HM81       -1.0476    0.1680   -0.7429 H         1 FMN         0.0535
     38 HM82       -0.6692    0.6350    0.9334 H         1 FMN         0.0535
     39 HM83        0.3769    1.1733   -0.3794 H         1 FMN         0.0535
     40 H9         -0.6349   -1.6256    1.7128 H         1 FMN         0.1971
     41 H1'1       -0.5966   -2.6906    3.2480 H         1 FMN         0.1123
     42 H1'2       -0.2877   -4.2309    4.0717 H         1 FMN         0.1123
     43 H2'        -1.4853   -5.2946    1.9549 H         1 FMN         0.0570
     44 HO2'       -3.0142   -3.8561    1.0759 H         1 FMN         0.4322
     45 H3'        -2.5308   -5.3459    4.2310 H         1 FMN         0.0570
     46 HO3'       -3.7190   -5.9944    2.4163 H         1 FMN         0.4323
     47 H4'        -2.4262   -2.7565    4.5261 H         1 FMN         0.0270
     48 HO4'       -4.2243   -2.8921    5.8848 H         1 FMN         0.4672
     49 H5'1       -3.7748   -2.1248    2.4910 H         1 FMN         0.0181
     50 H5'2       -5.1725   -3.0123    3.1709 H         1 FMN         0.0181
@<TRIPOS>BOND
     1    1    2 ar
     2    1   18 ar
     3    2    3 2
     4    2    4 ar
     5    4    5 ar
     6    4   32 1
     7    5    6 2
     8    5    7 ar
     9    7    8 ar
    10    7   18 ar
    11    8    9 ar
    12    9   10 ar
    13    9   16 ar
    14   10   11 ar
    15   10   33 1
    16   11   12 1
    17   11   13 ar
    18   12   34 1
    19   12   35 1
    20   12   36 1
    21   13   14 1
    22   13   15 ar
    23   14   37 1
    24   14   38 1
    25   14   39 1
    26   15   16 ar
    27   15   40 1
    28   16   17 ar
    29   17   18 ar
    30   17   19 1
    31   19   20 1
    32   19   41 1
    33   19   42 1
    34   20   21 1
    35   20   22 1
    36   20   43 1
    37   21   44 1
    38   22   23 1
    39   22   24 1
    40   22   45 1
    41   23   46 1
    42   24   25 1
    43   24   26 1
    44   24   47 1
    45   25   48 1
    46   26   27 1
    47   26   49 1
    48   26   50 1
    49   27   28 1
    50   28   29 2
    51   28   30 1
    52   28   31 1
@<TRIPOS>SUBSTRUCTURE
     1 FMN         1 GROUP 0 A     ****
@<TRIPOS>MOLECULE
[5-(7,8-dimethyl-2,4-dioxo-benzo[g]pteridin-10-yl)-2,3,4-trihydroxy-pentyl] phosphate
   50    52     1     0     0
SMALL
USER_CHARGES

@<TRIPOS>ATOM
      1 N1          1.2277   -6.1042    3.2212 N.2       1 FMN        -0.6988
      2 C2          2.0186   -7.2293    3.3119 C.ar      1 FMN         0.8536
      3 O2          1.7830   -8.1102    4.1421 O.2       1 FMN        -0.6019
      4 N3          3.1050   -7.3794    2.4494 N.pl3     1 FMN        -0.6223
      5 C4          3.4932   -6.4908    1.4752 C.ar      1 FMN         0.6334
      6 O4          4.4350   -6.5937    0.7081 O.2       1 FMN        -0.6125
      7 C4A         2.6001   -5.2945    1.4253 C.ar      1 FMN         0.2211
      8 N5          2.8818   -4.3956    0.5389 N.2       1 FMN        -0.4286
      9 C5A         2.0834   -3.2454    0.4374 C.ar      1 FMN         0.0170
     10 C6          2.4298   -2.2996   -0.5398 C.ar      1 FMN        -0.0553
     11 C7          1.6851   -1.1351   -0.6992 C.ar      1 FMN        -0.1211
     12 C7M         2.0850   -0.1527   -1.7495 C.3       1 FMN        -0.0435
     13 C8          0.5864   -0.9067    0.1183 C.ar      1 FMN        -0.0173
     14 C8M        -0.2342    0.3332   -0.0271 C.3       1 FMN        -0.0630
     15 C9          0.2330   -1.8421    1.0943 C.ar      1 FMN        -0.1390
     16 C9A         0.9704   -3.0274    1.2749 C.ar      1 FMN         0.1887
     17 N10         0.6547   -4.0033    2.2457 N.pl3     1 FMN        -0.5294
     18 C10         1.4328   -5.1491    2.3626 C.ar      1 FMN         0.6151
     19 C1'        -0.5012   -3.7679    3.1095 C.3       1 FMN         0.1741
     20 C2'        -1.7519   -4.3580    2.4592 C.3       1 FMN         0.1411
     21 O2'        -2.2248   -3.4496    1.4638 O.3       1 FMN        -0.6334
     22 C3'        -2.8727   -4.6164    3.4857 C.3       1 FMN         0.1067
     23 O3'        -2.4138   -5.5356    4.4758 O.3       1 FMN        -0.6301
     24 C4'        -4.1564   -5.1800    2.8473 C.3       1 FMN         0.0813
     25 O4'        -3.8007   -6.1311    1.8419 O.3       1 FMN        -0.6796
     26 C5'        -5.0133   -4.0907    2.2038 C.3       1 FMN         0.1813
     27 O5'        -6.3438   -4.5785    2.0613 O.3       1 FMN        -0.5642
     28 P          -7.4789   -3.5895    1.3873 P.3       1 FMN         1.3127
     29 O1P        -7.5359   -2.3763    2.3109 O.co2     1 FMN        -0.9243
     30 O2P        -8.7448   -4.4411    1.4041 O.co2     1 FMN        -0.9243
     31 O3P        -6.9520   -3.2899   -0.0131 O.co2     1 FMN        -0.9243
     32 HN3         3.6607   -8.2239    2.5509 H         1 FMN         0.3334
     33 H6          3.2920   -2.4807   -1.1791 H         1 FMN         0.1447
     34 HM71        1.5822   -0.3820   -2.6964 H         1 FMN         0.0392
     35 HM72        1.8243    0.8717   -1.4550 H         1 FMN         0.0392
     36 HM73        3.1694   -0.1698   -1.9170 H         1 FMN         0.0392
     37 HM81       -1.0476    0.1680   -0.7429 H         1 FMN         0.0535
     38 HM82       -0.6692    0.6350    0.9334 H         1 FMN         0.0535
     39 HM83        0.3769    1.1733   -0.3794 H         1 FMN         0.0535
     40 H9         -0.6349   -1.6256    1.7128 H         1 FMN         0.1971
     41 H1'1       -0.5966   -2.6906    3.2480 H         1 FMN         0.1123
     42 H1'2       -0.2877   -4.2309    4.0717 H         1 FMN         0.1123
     43 H2'        -1.4853   -5.2946    1.9549 H         1 FMN         0.0570
     44 HO2'       -2.4249   -2.6205    1.9234 H         1 FMN         0.4322
     45 H3'        -3.1346   -3.6782    3.9915 H         1 FMN         0.0570
     46 HO3'       -2.1806   -6.3509    4.0064 H         1 FMN         0.4323
     47 H4'        -4.7494   -5.7148    3.5982 H         1 FMN         0.0270
     48 HO4'       -4.6331   -6.4578    1.4693 H         1 FMN         0.4672
     49 H5'1       -5.0546   -3.1920    2.8274 H         1 FMN         0.0181
     50 H5'2       -4.6383   -3.8322    1.2087 H         1 FMN         0.0181
@<TRIPOS>BOND
     1    1    2 ar
     2    1   18 ar
     3    2    3 2
     4    2    4 ar
     5    4    5 ar
     6    4   32 1
     7    5    6 2
     8    5    7 ar
     9    7    8 ar
    10    7   18 ar
    11    8    9 ar
    12    9   10 ar
    13    9   16 ar
    14   10   11 ar
    15   10   33 1
    16   11   12 1
    17   11   13 ar
    18   12   34 1
    19   12   35 1
    20   12   36 1
    21   13   14 1
    22   13   15 ar
    23   14   37 1
    24   14   38 1
    25   14   39 1
    26   15   16 ar
    27   15   40 1
    28   16   17 ar
    29   17   18 ar
    30   17   19 1
    31   19   20 1
    32   19   41 1
    33   19   42 1
    34   20   21 1
    35   20   22 1
    36   20   43 1
    37   21   44 1
    38   22   23 1
    39   22   24 1
    40   22   45 1
    41   23   46 1
    42   24   25 1
    43   24   26 1
    44   24   47 1
    45   25   48 1
    46   26   27 1
    47   26   49 1
    48   26   50 1
    49   27   28 1
    50   28   29 2
    51   28   30 1
    52   28   31 1
@<TRIPOS>SUBSTRUCTURE
     1 FMN         1 GROUP 0 A     ****
@<TRIPOS>MOLECULE
[5-(7,8-dimethyl-2,4-dioxo-benzo[g]pteridin-10-yl)-2,3,4-trihydroxy-pentyl] phosphate
   50    52     1     0     0
SMALL
USER_CHARGES

@<TRIPOS>ATOM
      1 N1          1.2277   -6.1042    3.2212 N.2       1 FMN        -0.6988
      2 C2          2.0186   -7.2293    3.3119 C.ar      1 FMN         0.8536
      3 O2          1.7830   -8.1102    4.1421 O.2       1 FMN        -0.6019
      4 N3          3.1050   -7.3794    2.4494 N.pl3     1 FMN        -0.6223
      5 C4          3.4932   -6.4908    1.4752 C.ar      1 FMN         0.6334
      6 O4          4.4350   -6.5937    0.7081 O.2       1 FMN        -0.6125
      7 C4A         2.6001   -5.2945    1.4253 C.ar      1 FMN         0.2211
      8 N5          2.8818   -4.3956    0.5389 N.2       1 FMN        -0.4286
      9 C5A         2.0834   -3.2454    0.4374 C.ar      1 FMN         0.0170
     10 C6          2.4298   -2.2996   -0.5398 C.ar      1 FMN        -0.0553
     11 C7          1.6851   -1.1351   -0.6992 C.ar      1 FMN        -0.1211
     12 C7M         2.0850   -0.1527   -1.7495 C.3       1 FMN        -0.0435
     13 C8          0.5864   -0.9067    0.1183 C.ar      1 FMN        -0.0173
     14 C8M        -0.2342    0.3332   -0.0271 C.3       1 FMN        -0.0630
     15 C9          0.2330   -1.8421    1.0943 C.ar      1 FMN        -0.1390
     16 C9A         0.9704   -3.0274    1.2749 C.ar      1 FMN         0.1887
     17 N10         0.6547   -4.0033    2.2457 N.pl3     1 FMN        -0.5294
     18 C10         1.4328   -5.1491    2.3626 C.ar      1 FMN         0.6151
     19 C1'        -0.5012   -3.7679    3.1095 C.3       1 FMN         0.1741
     20 C2'        -0.0563   -3.0138    4.3619 C.3       1 FMN         0.1411
     21 O2'         1.2000   -3.5387    4.7929 O.3       1 FMN        -0.6334
     22 C3'        -1.0797   -3.1379    5.5082 C.3       1 FMN         0.1067
     23 O3'        -1.2466   -4.5118    5.8556 O.3       1 FMN        -0.6301
     24 C4'        -2.4578   -2.5486    5.1523 C.3       1 FMN         0.0813
     25 O4'        -2.3088   -1.1607    4.8464 O.3       1 FMN        -0.6796
     26 C5'        -3.4635   -2.6889    6.2940 C.3       1 FMN         0.1813
     27 O5'        -3.9823   -4.0153    6.2876 O.3       1 FMN        -0.5642
     28 P          -4.4539   -4.6852    7.7193 P.3       1 FMN         1.3127
     29 O1P        -3.1930   -4.6942    8.5787 O.co2     1 FMN        -0.9243
     30 O2P        -4.9394   -6.0745    7.3168 O.co2     1 FMN        -0.9243
     31 O3P        -5.5590   -3.7672    8.2333 O.co2     1 FMN        -0.9243
     32 HN3         3.6607   -8.2239    2.5509 H         1 FMN         0.3334
     33 H6          3.2920   -2.4807   -1.1791 H         1 FMN         0.1447
     34 HM71        1.5822   -0.3820   -2.6964 H         1 FMN         0.0392
     35 HM72        1.8243    0.8717   -1.4550 H         1 FMN         0.0392
     36 HM73        3.1694   -0.1698   -1.9170 H         1 FMN         0.0392
     37 HM81       -1.0476    0.1680   -0.7429 H         1 FMN         0.0535
     38 HM82       -0.6692    0.6350    0.9334 H         1 FMN         0.0535
     39 HM83        0.3769    1.1733   -0.3794 H         1 FMN         0.0535
     40 H9         -0.6349   -1.6256    1.7128 H         1 FMN         0.1971
     41 H1'1       -0.9287   -4.7387    3.3617 H         1 FMN         0.1123
     42 H1'2       -1.2289   -3.2002    2.5315 H         1 FMN         0.1123
     43 H2'         0.0940   -1.9572    4.1093 H         1 FMN         0.0570
     44 HO2'        1.4481   -3.0384    5.5846 H         1 FMN         0.4322
     45 H3'        -0.7081   -2.6082    6.3948 H         1 FMN         0.0570
     46 HO3'       -0.3753   -4.8323    6.1341 H         1 FMN         0.4323
     47 H4'        -2.8560   -3.0333    4.2534 H         1 FMN         0.0270
     48 HO4'       -1.9449   -0.7441    5.6416 H         1 FMN         0.4672
     49 H5'1       -2.9912   -2.5223    7.2675 H         1 FMN         0.0181
     50 H5'2       -4.3013   -1.9963    6.1672 H         1 FMN         0.0181
@<TRIPOS>BOND
     1    1    2 ar
     2    1   18 ar
     3    2    3 2
     4    2    4 ar
     5    4    5 ar
     6    4   32 1
     7    5    6 2
     8    5    7 ar
     9    7    8 ar
    10    7   18 ar
    11    8    9 ar
    12    9   10 ar
    13    9   16 ar
    14   10   11 ar
    15   10   33 1
    16   11   12 1
    17   11   13 ar
    18   12   34 1
    19   12   35 1
    20   12   36 1
    21   13   14 1
    22   13   15 ar
    23   14   37 1
    24   14   38 1
    25   14   39 1
    26   15   16 ar
    27   15   40 1
    28   16   17 ar
    29   17   18 ar
    30   17   19 1
    31   19   20 1
    32   19   41 1
    33   19   42 1
    34   20   21 1
    35   20   22 1
    36   20   43 1
    37   21   44 1
    38   22   23 1
    39   22   24 1
    40   22   45 1
    41   23   46 1
    42   24   25 1
    43   24   26 1
    44   24   47 1
    45   25   48 1
    46   26   27 1
    47   26   49 1
    48   26   50 1
    49   27   28 1
    50   28   29 2
    51   28   30 1
    52   28   31 1
@<TRIPOS>SUBSTRUCTURE
     1 FMN         1 GROUP 0 A     ****
@<TRIPOS>MOLECULE
[5-(7,8-dimethyl-2,4-dioxo-benzo[g]pteridin-10-yl)-2,3,4-trihydroxy-pentyl] phosphate
   50    52     1     0     0
SMALL
USER_CHARGES

@<TRIPOS>ATOM
      1 N1          1.2277   -6.1042    3.2212 N.2       1 FMN        -0.6988
      2 C2          2.0186   -7.2293    3.3119 C.ar      1 FMN         0.8536
      3 O2          1.7830   -8.1102    4.1421 O.2       1 FMN        -0.6019
      4 N3          3.1050   -7.3794    2.4494 N.pl3     1 FMN        -0.6223
      5 C4          3.4932   -6.4908    1.4752 C.ar      1 FMN         0.6334
      6 O4          4.4350   -6.5937    0.7081 O.2       1 FMN        -0.6125
      7 C4A         2.6001   -5.2945    1.4253 C.ar      1 FMN         0.2211
      8 N5          2.8818   -4.3956    0.5389 N.2       1 FMN        -0.4286
      9 C5A         2.0834   -3.2454    0.4374 C.ar      1 FMN         0.0170
     10 C6          2.4298   -2.2996   -0.5398 C.ar      1 FMN        -0.0553
     11 C7          1.6851   -1.1351   -0.6992 C.ar      1 FMN        -0.1211
     12 C7M         2.0850   -0.1527   -1.7495 C.3       1 FMN        -0.0435
     13 C8          0.5864   -0.9067    0.1183 C.ar      1 FMN        -0.0173
     14 C8M        -0.2342    0.3332   -0.0271 C.3       1 FMN        -0.0630
     15 C9          0.2330   -1.8421    1.0943 C.ar      1 FMN        -0.1390
     16 C9A         0.9704   -3.0274    1.2749 C.ar      1 FMN         0.1887
     17 N10         0.6547   -4.0033    2.2457 N.pl3     1 FMN        -0.5294
     18 C10         1.4328   -5.1491    2.3626 C.ar      1 FMN         0.6151
     19 C1'        -0.5012   -3.7679    3.1095 C.3       1 FMN         0.1741
     20 C2'        -1.7519   -4.3580    2.4592 C.3       1 FMN         0.1411
     21 O2'        -1.9553   -3.7249    1.1953 O.3       1 FMN        -0.6334
     22 C3'        -3.0070   -4.1638    3.3332 C.3       1 FMN         0.1067
     23 O3'        -2.6744   -4.3773    4.7043 O.3       1 FMN        -0.6301
     24 C4'        -4.1593   -5.1125    2.9522 C.3       1 FMN         0.0813
     25 O4'        -5.3880   -4.5814    3.4525 O.3       1 FMN        -0.6796
     26 C5'        -3.9697   -6.5174    3.5226 C.3       1 FMN         0.1813
     27 O5'        -4.7747   -7.4266    2.7785 O.3       1 FMN        -0.5642
     28 P          -5.3651   -8.7646    3.5418 P.3       1 FMN         1.3127
     29 O1P        -4.1268   -9.5269    4.0041 O.co2     1 FMN        -0.9243
     30 O2P        -6.1576   -9.4747    2.4483 O.co2     1 FMN        -0.9243
     31 O3P        -6.2268   -8.2173    4.6759 O.co2     1 FMN        -0.9243
     32 HN3         3.6607   -8.2239    2.5509 H         1 FMN         0.3334
     33 H6          3.2920   -2.4807   -1.1791 H         1 FMN         0.1447
     34 HM71        1.5822   -0.3820   -2.6964 H         1 FMN         0.0392
     35 HM72        1.8243    0.8717   -1.4550 H         1 FMN         0.0392
     36 HM73        3.1694   -0.1698   -1.9170 H         1 FMN         0.0392
     37 HM81       -1.0476    0.1680   -0.7429 H         1 FMN         0.0535
     38 HM82       -0.6692    0.6350    0.9334 H         1 FMN         0.0535
     39 HM83        0.3769    1.1733   -0.3794 H         1 FMN         0.0535
     40 H9         -0.6349   -1.6256    1.7128 H         1 FMN         0.1971
     41 H1'1       -0.5966   -2.6906    3.2480 H         1 FMN         0.1123
     42 H1'2       -0.2877   -4.2309    4.0717 H         1 FMN         0.1123
     43 H2'        -1.5888   -5.4264    2.2735 H         1 FMN         0.0570
     44 HO2'       -2.7528   -4.1231    0.8155 H         1 FMN         0.4322
     45 H3'        -3.3733   -3.1343    3.2310 H         1 FMN         0.0570
     46 HO3'       -3.4913   -4.2444    5.2088 H         1 FMN         0.4323
     47 H4'        -4.2565   -5.1712    1.8620 H         1 FMN         0.0270
     48 HO4'       -6.0810   -5.2059    3.1916 H         1 FMN         0.4672
     49 H5'1       -2.9298   -6.8483    3.4365 H         1 FMN         0.0181
     50 H5'2       -4.2857   -6.5626    4.5693 H         1 FMN         0.0181
@<TRIPOS>BOND
     1    1    2 ar
     2    1   18 ar
     3    2    3 2
     4    2    4 ar
     5    4    5 ar
     6    4   32 1
     7    5    6 2
     8    5    7 ar
     9    7    8 ar
    10    7   18 ar
    11    8    9 ar
    12    9   10 ar
    13    9   16 ar
    14   10   11 ar
    15   10   33 1
    16   11   12 1
    17   11   13 ar
    18   12   34 1
    19   12   35 1
    20   12   36 1
    21   13   14 1
    22   13   15 ar
    23   14   37 1
    24   14   38 1
    25   14   39 1
    26   15   16 ar
    27   15   40 1
    28   16   17 ar
    29   17   18 ar
    30   17   19 1
    31   19   20 1
    32   19   41 1
    33   19   42 1
    34   20   21 1
    35   20   22 1
    36   20   43 1
    37   21   44 1
    38   22   23 1
    39   22   24 1
    40   22   45 1
    41   23   46 1
    42   24   25 1
    43   24   26 1
    44   24   47 1
    45   25   48 1
    46   26   27 1
    47   26   49 1
    48   26   50 1
    49   27   28 1
    50   28   29 2
    51   28   30 1
    52   28   31 1
@<TRIPOS>SUBSTRUCTURE
     1 FMN         1 GROUP 0 A     ****
@<TRIPOS>MOLECULE
[5-(7,8-dimethyl-2,4-dioxo-benzo[g]pteridin-10-yl)-2,3,4-trihydroxy-pentyl] phosphate
   50    52     1     0     0
SMALL
USER_CHARGES

@<TRIPOS>ATOM
      1 N1          1.2277   -6.1042    3.2212 N.2       1 FMN        -0.6988
      2 C2          2.0186   -7.2293    3.3119 C.ar      1 FMN         0.8536
      3 O2          1.7830   -8.1102    4.1421 O.2       1 FMN        -0.6019
      4 N3          3.1050   -7.3794    2.4494 N.pl3     1 FMN        -0.6223
      5 C4          3.4932   -6.4908    1.4752 C.ar      1 FMN         0.6334
      6 O4          4.4350   -6.5937    0.7081 O.2       1 FMN        -0.6125
      7 C4A         2.6001   -5.2945    1.4253 C.ar      1 FMN         0.2211
      8 N5          2.8818   -4.3956    0.5389 N.2       1 FMN        -0.4286
      9 C5A         2.0834   -3.2454    0.4374 C.ar      1 FMN         0.0170
     10 C6          2.4298   -2.2996   -0.5398 C.ar      1 FMN        -0.0553
     11 C7          1.6851   -1.1351   -0.6992 C.ar      1 FMN        -0.1211
     12 C7M         2.0850   -0.1527   -1.7495 C.3       1 FMN        -0.0435
     13 C8          0.5864   -0.9067    0.1183 C.ar      1 FMN        -0.0173
     14 C8M        -0.2342    0.3332   -0.0271 C.3       1 FMN        -0.0630
     15 C9          0.2330   -1.8421    1.0943 C.ar      1 FMN        -0.1390
     16 C9A         0.9704   -3.0274    1.2749 C.ar      1 FMN         0.1887
     17 N10         0.6547   -4.0033    2.2457 N.pl3     1 FMN        -0.5294
     18 C10         1.4328   -5.1491    2.3626 C.ar      1 FMN         0.6151
     19 C1'        -0.5012   -3.7679    3.1095 C.3       1 FMN         0.1741
     20 C2'        -0.0563   -3.0138    4.3619 C.3       1 FMN         0.1411
     21 O2'         0.9124   -3.8026    5.0539 O.3       1 FMN        -0.6334
     22 C3'        -1.2361   -2.7121    5.3074 C.3       1 FMN         0.1067
     23 O3'        -2.1140   -3.8360    5.3527 O.3       1 FMN        -0.6301
     24 C4'        -2.0453   -1.4714    4.8845 C.3       1 FMN         0.0813
     25 O4'        -2.5765   -1.6828    3.5749 O.3       1 FMN        -0.6796
     26 C5'        -1.1959   -0.2013    4.8647 C.3       1 FMN         0.1813
     27 O5'        -0.6787    0.0247    6.1723 O.3       1 FMN        -0.5642
     28 P           0.7749    0.7896    6.3246 P.3       1 FMN         1.3127
     29 O1P         1.7665   -0.1098    5.5925 O.co2     1 FMN        -0.9243
     30 O2P         0.9879    0.8468    7.8344 O.co2     1 FMN        -0.9243
     31 O3P         0.5661    2.1548    5.6759 O.co2     1 FMN        -0.9243
     32 HN3         3.6607   -8.2239    2.5509 H         1 FMN         0.3334
     33 H6          3.2920   -2.4807   -1.1791 H         1 FMN         0.1447
     34 HM71        1.5822   -0.3820   -2.6964 H         1 FMN         0.0392
     35 HM72        1.8243    0.8717   -1.4550 H         1 FMN         0.0392
     36 HM73        3.1694   -0.1698   -1.9170 H         1 FMN         0.0392
     37 HM81       -1.0476    0.1680   -0.7429 H         1 FMN         0.0535
     38 HM82       -0.6692    0.6350    0.9334 H         1 FMN         0.0535
     39 HM83        0.3769    1.1733   -0.3794 H         1 FMN         0.0535
     40 H9         -0.6349   -1.6256    1.7128 H         1 FMN         0.1971
     41 H1'1       -0.9287   -4.7387    3.3617 H         1 FMN         0.1123
     42 H1'2       -1.2289   -3.2002    2.5315 H         1 FMN         0.1123
     43 H2'         0.4300   -2.0775    4.0623 H         1 FMN         0.0570
     44 HO2'        1.1692   -3.2943    5.8378 H         1 FMN         0.4322
     45 H3'        -0.8602   -2.5361    6.3235 H         1 FMN         0.0570
     46 HO3'       -2.8340   -3.5978    5.9562 H         1 FMN         0.4323
     47 H4'        -2.8991   -1.3290    5.5570 H         1 FMN         0.0270
     48 HO4'       -3.1429   -2.4665    3.6339 H         1 FMN         0.4672
     49 H5'1       -0.3445   -0.2986    4.1835 H         1 FMN         0.0181
     50 H5'2       -1.7966    0.6689    4.5823 H         1 FMN         0.0181
@<TRIPOS>BOND
     1    1    2 ar
     2    1   18 ar
     3    2    3 2
     4    2    4 ar
     5    4    5 ar
     6    4   32 1
     7    5    6 2
     8    5    7 ar
     9    7    8 ar
    10    7   18 ar
    11    8    9 ar
    12    9   10 ar
    13    9   16 ar
    14   10   11 ar
    15   10   33 1
    16   11   12 1
    17   11   13 ar
    18   12   34 1
    19   12   35 1
    20   12   36 1
    21   13   14 1
    22   13   15 ar
    23   14   37 1
    24   14   38 1
    25   14   39 1
    26   15   16 ar
    27   15   40 1
    28   16   17 ar
    29   17   18 ar
    30   17   19 1
    31   19   20 1
    32   19   41 1
    33   19   42 1
    34   20   21 1
    35   20   22 1
    36   20   43 1
    37   21   44 1
    38   22   23 1
    39   22   24 1
    40   22   45 1
    41   23   46 1
    42   24   25 1
    43   24   26 1
    44   24   47 1
    45   25   48 1
    46   26   27 1
    47   26   49 1
    48   26   50 1
    49   27   28 1
    50   28   29 2
    51   28   30 1
    52   28   31 1
@<TRIPOS>SUBSTRUCTURE
     1 FMN         1 GROUP 0 A     ****
@<TRIPOS>MOLECULE
[5-(7,8-dimethyl-2,4-dioxo-benzo[g]pteridin-10-yl)-2,3,4-trihydroxy-pentyl] phosphate
   50    52     1     0     0
SMALL
USER_CHARGES

@<TRIPOS>ATOM
      1 N1          1.2277   -6.1042    3.2212 N.2       1 FMN        -0.6988
      2 C2          2.0186   -7.2293    3.3119 C.ar      1 FMN         0.8536
      3 O2          1.7830   -8.1102    4.1421 O.2       1 FMN        -0.6019
      4 N3          3.1050   -7.3794    2.4494 N.pl3     1 FMN        -0.6223
      5 C4          3.4932   -6.4908    1.4752 C.ar      1 FMN         0.6334
      6 O4          4.4350   -6.5937    0.7081 O.2       1 FMN        -0.6125
      7 C4A         2.6001   -5.2945    1.4253 C.ar      1 FMN         0.2211
      8 N5          2.8818   -4.3956    0.5389 N.2       1 FMN        -0.4286
      9 C5A         2.0834   -3.2454    0.4374 C.ar      1 FMN         0.0170
     10 C6          2.4298   -2.2996   -0.5398 C.ar      1 FMN        -0.0553
     11 C7          1.6851   -1.1351   -0.6992 C.ar      1 FMN        -0.1211
     12 C7M         2.0850   -0.1527   -1.7495 C.3       1 FMN        -0.0435
     13 C8          0.5864   -0.9067    0.1183 C.ar      1 FMN        -0.0173
     14 C8M        -0.2342    0.3332   -0.0271 C.3       1 FMN        -0.0630
     15 C9          0.2330   -1.8421    1.0943 C.ar      1 FMN        -0.1390
     16 C9A         0.9704   -3.0274    1.2749 C.ar      1 FMN         0.1887
     17 N10         0.6547   -4.0033    2.2457 N.pl3     1 FMN        -0.5294
     18 C10         1.4328   -5.1491    2.3626 C.ar      1 FMN         0.6151
     19 C1'        -0.5012   -3.7679    3.1095 C.3       1 FMN         0.1741
     20 C2'        -1.7519   -4.3580    2.4592 C.3       1 FMN         0.1411
     21 O2'        -2.2248   -3.4496    1.4638 O.3       1 FMN        -0.6334
     22 C3'        -2.8727   -4.6164    3.4857 C.3       1 FMN         0.1067
     23 O3'        -2.6151   -5.8358    4.1805 O.3       1 FMN        -0.6301
     24 C4'        -4.2704   -4.7010    2.8434 C.3       1 FMN         0.0813
     25 O4'        -5.2411   -4.9411    3.8643 O.3       1 FMN        -0.6796
     26 C5'        -4.3683   -5.8200    1.8075 C.3       1 FMN         0.1813
     27 O5'        -5.4739   -5.5550    0.9497 O.3       1 FMN        -0.5642
     28 P          -5.1929   -5.3680   -0.6650 P.3       1 FMN         1.3127
     29 O1P        -4.2475   -4.1741   -0.7597 O.co2     1 FMN        -0.9243
     30 O2P        -6.5824   -5.1052   -1.2377 O.co2     1 FMN        -0.9243
     31 O3P        -4.5797   -6.6928   -1.1093 O.co2     1 FMN        -0.9243
     32 HN3         3.6607   -8.2239    2.5509 H         1 FMN         0.3334
     33 H6          3.2920   -2.4807   -1.1791 H         1 FMN         0.1447
     34 HM71        1.5822   -0.3820   -2.6964 H         1 FMN         0.0392
     35 HM72        1.8243    0.8717   -1.4550 H         1 FMN         0.0392
     36 HM73        3.1694   -0.1698   -1.9170 H         1 FMN         0.0392
     37 HM81       -1.0476    0.1680   -0.7429 H         1 FMN         0.0535
     38 HM82       -0.6692    0.6350    0.9334 H         1 FMN         0.0535
     39 HM83        0.3769    1.1733   -0.3794 H         1 FMN         0.0535
     40 H9         -0.6349   -1.6256    1.7128 H         1 FMN         0.1971
     41 H1'1       -0.5966   -2.6906    3.2480 H         1 FMN         0.1123
     42 H1'2       -0.2877   -4.2309    4.0717 H         1 FMN         0.1123
     43 H2'        -1.4853   -5.2946    1.9549 H         1 FMN         0.0570
     44 HO2'       -2.4249   -2.6205    1.9234 H         1 FMN         0.4322
     45 H3'        -2.8924   -3.8046    4.2242 H         1 FMN         0.0570
     46 HO3'       -3.3430   -5.9523    4.8098 H         1 FMN         0.4323
     47 H4'        -4.5297   -3.7451    2.3738 H         1 FMN         0.0270
     48 HO4'       -5.1825   -4.1933    4.4772 H         1 FMN         0.4672
     49 H5'1       -3.4696   -5.8696    1.1844 H         1 FMN         0.0181
     50 H5'2       -4.5370   -6.7880    2.2893 H         1 FMN         0.0181
@<TRIPOS>BOND
     1    1    2 ar
     2    1   18 ar
     3    2    3 2
     4    2    4 ar
     5    4    5 ar
     6    4   32 1
     7    5    6 2
     8    5    7 ar
     9    7    8 ar
    10    7   18 ar
    11    8    9 ar
    12    9   10 ar
    13    9   16 ar
    14   10   11 ar
    15   10   33 1
    16   11   12 1
    17   11   13 ar
    18   12   34 1
    19   12   35 1
    20   12   36 1
    21   13   14 1
    22   13   15 ar
    23   14   37 1
    24   14   38 1
    25   14   39 1
    26   15   16 ar
    27   15   40 1
    28   16   17 ar
    29   17   18 ar
    30   17   19 1
    31   19   20 1
    32   19   41 1
    33   19   42 1
    34   20   21 1
    35   20   22 1
    36   20   43 1
    37   21   44 1
    38   22   23 1
    39   22   24 1
    40   22   45 1
    41   23   46 1
    42   24   25 1
    43   24   26 1
    44   24   47 1
    45   25   48 1
    46   26   27 1
    47   26   49 1
    48   26   50 1
    49   27   28 1
    50   28   29 2
    51   28   30 1
    52   28   31 1
@<TRIPOS>SUBSTRUCTURE
     1 FMN         1 GROUP 0 A     ****
@<TRIPOS>MOLECULE
[5-(7,8-dimethyl-2,4-dioxo-benzo[g]pteridin-10-yl)-2,3,4-trihydroxy-pentyl] phosphate
   50    52     1     0     0
SMALL
USER_CHARGES

@<TRIPOS>ATOM
      1 N1          1.2277   -6.1042    3.2212 N.2       1 FMN        -0.6988
      2 C2          2.0186   -7.2293    3.3119 C.ar      1 FMN         0.8536
      3 O2          1.7830   -8.1102    4.1421 O.2       1 FMN        -0.6019
      4 N3          3.1050   -7.3794    2.4494 N.pl3     1 FMN        -0.6223
      5 C4          3.4932   -6.4908    1.4752 C.ar      1 FMN         0.6334
      6 O4          4.4350   -6.5937    0.7081 O.2       1 FMN        -0.6125
      7 C4A         2.6001   -5.2945    1.4253 C.ar      1 FMN         0.2211
      8 N5          2.8818   -4.3956    0.5389 N.2       1 FMN        -0.4286
      9 C5A         2.0834   -3.2454    0.4374 C.ar      1 FMN         0.0170
     10 C6          2.4298   -2.2996   -0.5398 C.ar      1 FMN        -0.0553
     11 C7          1.6851   -1.1351   -0.6992 C.ar      1 FMN        -0.1211
     12 C7M         2.0850   -0.1527   -1.7495 C.3       1 FMN        -0.0435
     13 C8          0.5864   -0.9067    0.1183 C.ar      1 FMN        -0.0173
     14 C8M        -0.2342    0.3332   -0.0271 C.3       1 FMN        -0.0630
     15 C9          0.2330   -1.8421    1.0943 C.ar      1 FMN        -0.1390
     16 C9A         0.9704   -3.0274    1.2749 C.ar      1 FMN         0.1887
     17 N10         0.6547   -4.0033    2.2457 N.pl3     1 FMN        -0.5294
     18 C10         1.4328   -5.1491    2.3626 C.ar      1 FMN         0.6151
     19 C1'        -0.5012   -3.7679    3.1095 C.3       1 FMN         0.1741
     20 C2'        -1.7519   -4.3580    2.4592 C.3       1 FMN         0.1411
     21 O2'        -2.9043   -3.7429    3.0366 O.3       1 FMN        -0.6334
     22 C3'        -1.8403   -5.8851    2.6514 C.3       1 FMN         0.1067
     23 O3'        -0.9962   -6.5374    1.7038 O.3       1 FMN        -0.6301
     24 C4'        -3.2723   -6.4304    2.4933 C.3       1 FMN         0.0813
     25 O4'        -3.2583   -7.8462    2.6870 O.3       1 FMN        -0.6796
     26 C5'        -3.8589   -6.1350    1.1136 C.3       1 FMN         0.1813
     27 O5'        -5.1773   -6.6701    1.0519 O.3       1 FMN        -0.5642
     28 P          -6.0393   -6.4857   -0.3424 P.3       1 FMN         1.3127
     29 O1P        -6.1519   -4.9761   -0.5335 O.co2     1 FMN        -0.9243
     30 O2P        -7.3662   -7.1717   -0.0312 O.co2     1 FMN        -0.9243
     31 O3P        -5.2102   -7.1948   -1.4092 O.co2     1 FMN        -0.9243
     32 HN3         3.6607   -8.2239    2.5509 H         1 FMN         0.3334
     33 H6          3.2920   -2.4807   -1.1791 H         1 FMN         0.1447
     34 HM71        1.5822   -0.3820   -2.6964 H         1 FMN         0.0392
     35 HM72        1.8243    0.8717   -1.4550 H         1 FMN         0.0392
     36 HM73        3.1694   -0.1698   -1.9170 H         1 FMN         0.0392
     37 HM81       -1.0476    0.1680   -0.7429 H         1 FMN         0.0535
     38 HM82       -0.6692    0.6350    0.9334 H         1 FMN         0.0535
     39 HM83        0.3769    1.1733   -0.3794 H         1 FMN         0.0535
     40 H9         -0.6349   -1.6256    1.7128 H         1 FMN         0.1971
     41 H1'1       -0.5966   -2.6906    3.2480 H         1 FMN         0.1123
     42 H1'2       -0.2877   -4.2309    4.0717 H         1 FMN         0.1123
     43 H2'        -1.7471   -4.1167    1.3894 H         1 FMN         0.0570
     44 HO2'       -2.8274   -2.7942    2.8552 H         1 FMN         0.4322
     45 H3'        -1.4895   -6.1524    3.6564 H         1 FMN         0.0570
     46 HO3'       -1.0867   -7.4890    1.8648 H         1 FMN         0.4323
     47 H4'        -3.9256   -6.0083    3.2657 H         1 FMN         0.0270
     48 HO4'       -4.1734   -8.1449    2.5792 H         1 FMN         0.4672
     49 H5'1       -3.9292   -5.0581    0.9298 H         1 FMN         0.0181
     50 H5'2       -3.2643   -6.6057    0.3246 H         1 FMN         0.0181
@<TRIPOS>BOND
     1    1    2 ar
     2    1   18 ar
     3    2    3 2
     4    2    4 ar
     5    4    5 ar
     6    4   32 1
     7    5    6 2
     8    5    7 ar
     9    7    8 ar
    10    7   18 ar
    11    8    9 ar
    12    9   10 ar
    13    9   16 ar
    14   10   11 ar
    15   10   33 1
    16   11   12 1
    17   11   13 ar
    18   12   34 1
    19   12   35 1
    20   12   36 1
    21   13   14 1
    22   13   15 ar
    23   14   37 1
    24   14   38 1
    25   14   39 1
    26   15   16 ar
    27   15   40 1
    28   16   17 ar
    29   17   18 ar
    30   17   19 1
    31   19   20 1
    32   19   41 1
    33   19   42 1
    34   20   21 1
    35   20   22 1
    36   20   43 1
    37   21   44 1
    38   22   23 1
    39   22   24 1
    40   22   45 1
    41   23   46 1
    42   24   25 1
    43   24   26 1
    44   24   47 1
    45   25   48 1
    46   26   27 1
    47   26   49 1
    48   26   50 1
    49   27   28 1
    50   28   29 2
    51   28   30 1
    52   28   31 1
@<TRIPOS>SUBSTRUCTURE
     1 FMN         1 GROUP 0 A     ****
@<TRIPOS>MOLECULE
[5-(7,8-dimethyl-2,4-dioxo-benzo[g]pteridin-10-yl)-2,3,4-trihydroxy-pentyl] phosphate
   50    52     1     0     0
SMALL
USER_CHARGES

@<TRIPOS>ATOM
      1 N1          1.2277   -6.1042    3.2212 N.2       1 FMN        -0.6988
      2 C2          2.0186   -7.2293    3.3119 C.ar      1 FMN         0.8536
      3 O2          1.7830   -8.1102    4.1421 O.2       1 FMN        -0.6019
      4 N3          3.1050   -7.3794    2.4494 N.pl3     1 FMN        -0.6223
      5 C4          3.4932   -6.4908    1.4752 C.ar      1 FMN         0.6334
      6 O4          4.4350   -6.5937    0.7081 O.2       1 FMN        -0.6125
      7 C4A         2.6001   -5.2945    1.4253 C.ar      1 FMN         0.2211
      8 N5          2.8818   -4.3956    0.5389 N.2       1 FMN        -0.4286
      9 C5A         2.0834   -3.2454    0.4374 C.ar      1 FMN         0.0170
     10 C6          2.4298   -2.2996   -0.5398 C.ar      1 FMN        -0.0553
     11 C7          1.6851   -1.1351   -0.6992 C.ar      1 FMN        -0.1211
     12 C7M         2.0850   -0.1527   -1.7495 C.3       1 FMN        -0.0435
     13 C8          0.5864   -0.9067    0.1183 C.ar      1 FMN        -0.0173
     14 C8M        -0.2342    0.3332   -0.0271 C.3       1 FMN        -0.0630
     15 C9          0.2330   -1.8421    1.0943 C.ar      1 FMN        -0.1390
     16 C9A         0.9704   -3.0274    1.2749 C.ar      1 FMN         0.1887
     17 N10         0.6547   -4.0033    2.2457 N.pl3     1 FMN        -0.5294
     18 C10         1.4328   -5.1491    2.3626 C.ar      1 FMN         0.6151
     19 C1'        -0.5012   -3.7679    3.1095 C.3       1 FMN         0.1741
     20 C2'        -0.0563   -3.0138    4.3619 C.3       1 FMN         0.1411
     21 O2'         0.5241   -3.9440    5.2770 O.3       1 FMN        -0.6334
     22 C3'        -1.2298   -2.2882    5.0499 C.3       1 FMN         0.1067
     23 O3'        -0.7569   -1.6035    6.2091 O.3       1 FMN        -0.6301
     24 C4'        -2.3650   -3.2413    5.4693 C.3       1 FMN         0.0813
     25 O4'        -2.8768   -3.8992    4.3086 O.3       1 FMN        -0.6796
     26 C5'        -3.5151   -2.5090    6.1591 C.3       1 FMN         0.1813
     27 O5'        -3.1576   -2.2699    7.5168 O.3       1 FMN        -0.5642
     28 P          -3.7723   -0.9384    8.2720 P.3       1 FMN         1.3127
     29 O1P        -3.2627    0.2436    7.4526 O.co2     1 FMN        -0.9243
     30 O2P        -3.1784   -1.0218    9.6750 O.co2     1 FMN        -0.9243
     31 O3P        -5.2855   -1.1293    8.2270 O.co2     1 FMN        -0.9243
     32 HN3         3.6607   -8.2239    2.5509 H         1 FMN         0.3334
     33 H6          3.2920   -2.4807   -1.1791 H         1 FMN         0.1447
     34 HM71        1.5822   -0.3820   -2.6964 H         1 FMN         0.0392
     35 HM72        1.8243    0.8717   -1.4550 H         1 FMN         0.0392
     36 HM73        3.1694   -0.1698   -1.9170 H         1 FMN         0.0392
     37 HM81       -1.0476    0.1680   -0.7429 H         1 FMN         0.0535
     38 HM82       -0.6692    0.6350    0.9334 H         1 FMN         0.0535
     39 HM83        0.3769    1.1733   -0.3794 H         1 FMN         0.0535
     40 H9         -0.6349   -1.6256    1.7128 H         1 FMN         0.1971
     41 H1'1       -0.9287   -4.7387    3.3617 H         1 FMN         0.1123
     42 H1'2       -1.2289   -3.2002    2.5315 H         1 FMN         0.1123
     43 H2'         0.7199   -2.2895    4.0870 H         1 FMN         0.0570
     44 HO2'        1.2793   -4.3426    4.8192 H         1 FMN         0.4322
     45 H3'        -1.6548   -1.5417    4.3667 H         1 FMN         0.0570
     46 HO3'       -0.3792   -2.2795    6.7921 H         1 FMN         0.4323
     47 H4'        -1.9778   -4.0215    6.1347 H         1 FMN         0.0270
     48 HO4'       -3.2046   -3.2014    3.7222 H         1 FMN         0.4672
     49 H5'1       -3.7104   -1.5385    5.6918 H         1 FMN         0.0181
     50 H5'2       -4.4276   -3.1131    6.1498 H         1 FMN         0.0181
@<TRIPOS>BOND
     1    1    2 ar
     2    1   18 ar
     3    2    3 2
     4    2    4 ar
     5    4    5 ar
     6    4   32 1
     7    5    6 2
     8    5    7 ar
     9    7    8 ar
    10    7   18 ar
    11    8    9 ar
    12    9   10 ar
    13    9   16 ar
    14   10   11 ar
    15   10   33 1
    16   11   12 1
    17   11   13 ar
    18   12   34 1
    19   12   35 1
    20   12   36 1
    21   13   14 1
    22   13   15 ar
    23   14   37 1
    24   14   38 1
    25   14   39 1
    26   15   16 ar
    27   15   40 1
    28   16   17 ar
    29   17   18 ar
    30   17   19 1
    31   19   20 1
    32   19   41 1
    33   19   42 1
    34   20   21 1
    35   20   22 1
    36   20   43 1
    37   21   44 1
    38   22   23 1
    39   22   24 1
    40   22   45 1
    41   23   46 1
    42   24   25 1
    43   24   26 1
    44   24   47 1
    45   25   48 1
    46   26   27 1
    47   26   49 1
    48   26   50 1
    49   27   28 1
    50   28   29 2
    51   28   30 1
    52   28   31 1
@<TRIPOS>SUBSTRUCTURE
     1 FMN         1 GROUP 0 A     ****
@<TRIPOS>MOLECULE
[5-(7,8-dimethyl-2,4-dioxo-benzo[g]pteridin-10-yl)-2,3,4-trihydroxy-pentyl] phosphate
   50    52     1     0     0
SMALL
USER_CHARGES

@<TRIPOS>ATOM
      1 N1          1.2277   -6.1042    3.2212 N.2       1 FMN        -0.6988
      2 C2          2.0186   -7.2293    3.3119 C.ar      1 FMN         0.8536
      3 O2          1.7830   -8.1102    4.1421 O.2       1 FMN        -0.6019
      4 N3          3.1050   -7.3794    2.4494 N.pl3     1 FMN        -0.6223
      5 C4          3.4932   -6.4908    1.4752 C.ar      1 FMN         0.6334
      6 O4          4.4350   -6.5937    0.7081 O.2       1 FMN        -0.6125
      7 C4A         2.6001   -5.2945    1.4253 C.ar      1 FMN         0.2211
      8 N5          2.8818   -4.3956    0.5389 N.2       1 FMN        -0.4286
      9 C5A         2.0834   -3.2454    0.4374 C.ar      1 FMN         0.0170
     10 C6          2.4298   -2.2996   -0.5398 C.ar      1 FMN        -0.0553
     11 C7          1.6851   -1.1351   -0.6992 C.ar      1 FMN        -0.1211
     12 C7M         2.0850   -0.1527   -1.7495 C.3       1 FMN        -0.0435
     13 C8          0.5864   -0.9067    0.1183 C.ar      1 FMN        -0.0173
     14 C8M        -0.2342    0.3332   -0.0271 C.3       1 FMN        -0.0630
     15 C9          0.2330   -1.8421    1.0943 C.ar      1 FMN        -0.1390
     16 C9A         0.9704   -3.0274    1.2749 C.ar      1 FMN         0.1887
     17 N10         0.6547   -4.0033    2.2457 N.pl3     1 FMN        -0.5294
     18 C10         1.4328   -5.1491    2.3626 C.ar      1 FMN         0.6151
     19 C1'        -0.5012   -3.7679    3.1095 C.3       1 FMN         0.1741
     20 C2'        -1.7519   -4.3580    2.4592 C.3       1 FMN         0.1411
     21 O2'        -1.9553   -3.7249    1.1953 O.3       1 FMN        -0.6334
     22 C3'        -3.0070   -4.1638    3.3332 C.3       1 FMN         0.1067
     23 O3'        -2.6744   -4.3773    4.7043 O.3       1 FMN        -0.6301
     24 C4'        -4.1593   -5.1125    2.9522 C.3       1 FMN         0.0813
     25 O4'        -3.7231   -6.4646    3.1062 O.3       1 FMN        -0.6796
     26 C5'        -4.6246   -4.9136    1.5104 C.3       1 FMN         0.1813
     27 O5'        -5.9363   -5.4514    1.3737 O.3       1 FMN        -0.5642
     28 P          -6.6754   -5.3644   -0.0984 P.3       1 FMN         1.3127
     29 O1P        -6.7620   -3.8717   -0.4027 O.co2     1 FMN        -0.9243
     30 O2P        -8.0282   -6.0266    0.1454 O.co2     1 FMN        -0.9243
     31 O3P        -5.7630   -6.1463   -1.0389 O.co2     1 FMN        -0.9243
     32 HN3         3.6607   -8.2239    2.5509 H         1 FMN         0.3334
     33 H6          3.2920   -2.4807   -1.1791 H         1 FMN         0.1447
     34 HM71        1.5822   -0.3820   -2.6964 H         1 FMN         0.0392
     35 HM72        1.8243    0.8717   -1.4550 H         1 FMN         0.0392
     36 HM73        3.1694   -0.1698   -1.9170 H         1 FMN         0.0392
     37 HM81       -1.0476    0.1680   -0.7429 H         1 FMN         0.0535
     38 HM82       -0.6692    0.6350    0.9334 H         1 FMN         0.0535
     39 HM83        0.3769    1.1733   -0.3794 H         1 FMN         0.0535
     40 H9         -0.6349   -1.6256    1.7128 H         1 FMN         0.1971
     41 H1'1       -0.5966   -2.6906    3.2480 H         1 FMN         0.1123
     42 H1'2       -0.2877   -4.2309    4.0717 H         1 FMN         0.1123
     43 H2'        -1.5888   -5.4264    2.2735 H         1 FMN         0.0570
     44 HO2'       -1.1640   -3.9085    0.6672 H         1 FMN         0.4322
     45 H3'        -3.3733   -3.1343    3.2310 H         1 FMN         0.0570
     46 HO3'       -3.4913   -4.2444    5.2088 H         1 FMN         0.4323
     47 H4'        -5.0072   -4.9704    3.6322 H         1 FMN         0.0270
     48 HO4'       -3.4787   -6.5675    4.0378 H         1 FMN         0.4672
     49 H5'1       -4.6723   -3.8521    1.2470 H         1 FMN         0.0181
     50 H5'2       -3.9680   -5.4384    0.8095 H         1 FMN         0.0181
@<TRIPOS>BOND
     1    1    2 ar
     2    1   18 ar
     3    2    3 2
     4    2    4 ar
     5    4    5 ar
     6    4   32 1
     7    5    6 2
     8    5    7 ar
     9    7    8 ar
    10    7   18 ar
    11    8    9 ar
    12    9   10 ar
    13    9   16 ar
    14   10   11 ar
    15   10   33 1
    16   11   12 1
    17   11   13 ar
    18   12   34 1
    19   12   35 1
    20   12   36 1
    21   13   14 1
    22   13   15 ar
    23   14   37 1
    24   14   38 1
    25   14   39 1
    26   15   16 ar
    27   15   40 1
    28   16   17 ar
    29   17   18 ar
    30   17   19 1
    31   19   20 1
    32   19   41 1
    33   19   42 1
    34   20   21 1
    35   20   22 1
    36   20   43 1
    37   21   44 1
    38   22   23 1
    39   22   24 1
    40   22   45 1
    41   23   46 1
    42   24   25 1
    43   24   26 1
    44   24   47 1
    45   25   48 1
    46   26   27 1
    47   26   49 1
    48   26   50 1
    49   27   28 1
    50   28   29 2
    51   28   30 1
    52   28   31 1
@<TRIPOS>SUBSTRUCTURE
     1 FMN         1 GROUP 0 A     ****
@<TRIPOS>MOLECULE
[5-(7,8-dimethyl-2,4-dioxo-benzo[g]pteridin-10-yl)-2,3,4-trihydroxy-pentyl] phosphate
   50    52     1     0     0
SMALL
USER_CHARGES

@<TRIPOS>ATOM
      1 N1          1.2277   -6.1042    3.2212 N.2       1 FMN        -0.6988
      2 C2          2.0186   -7.2293    3.3119 C.ar      1 FMN         0.8536
      3 O2          1.7830   -8.1102    4.1421 O.2       1 FMN        -0.6019
      4 N3          3.1050   -7.3794    2.4494 N.pl3     1 FMN        -0.6223
      5 C4          3.4932   -6.4908    1.4752 C.ar      1 FMN         0.6334
      6 O4          4.4350   -6.5937    0.7081 O.2       1 FMN        -0.6125
      7 C4A         2.6001   -5.2945    1.4253 C.ar      1 FMN         0.2211
      8 N5          2.8818   -4.3956    0.5389 N.2       1 FMN        -0.4286
      9 C5A         2.0834   -3.2454    0.4374 C.ar      1 FMN         0.0170
     10 C6          2.4298   -2.2996   -0.5398 C.ar      1 FMN        -0.0553
     11 C7          1.6851   -1.1351   -0.6992 C.ar      1 FMN        -0.1211
     12 C7M         2.0850   -0.1527   -1.7495 C.3       1 FMN        -0.0435
     13 C8          0.5864   -0.9067    0.1183 C.ar      1 FMN        -0.0173
     14 C8M        -0.2342    0.3332   -0.0271 C.3       1 FMN        -0.0630
     15 C9          0.2330   -1.8421    1.0943 C.ar      1 FMN        -0.1390
     16 C9A         0.9704   -3.0274    1.2749 C.ar      1 FMN         0.1887
     17 N10         0.6547   -4.0033    2.2457 N.pl3     1 FMN        -0.5294
     18 C10         1.4328   -5.1491    2.3626 C.ar      1 FMN         0.6151
     19 C1'        -0.5012   -3.7679    3.1095 C.3       1 FMN         0.1741
     20 C2'        -0.0563   -3.0138    4.3619 C.3       1 FMN         0.1411
     21 O2'         1.2000   -3.5387    4.7929 O.3       1 FMN        -0.6334
     22 C3'        -1.0797   -3.1379    5.5082 C.3       1 FMN         0.1067
     23 O3'        -2.3343   -2.6010    5.0914 O.3       1 FMN        -0.6301
     24 C4'        -0.6360   -2.4132    6.7932 C.3       1 FMN         0.0813
     25 O4'         0.5980   -2.9744    7.2450 O.3       1 FMN        -0.6796
     26 C5'        -1.6652   -2.5362    7.9159 C.3       1 FMN         0.1813
     27 O5'        -1.1796   -1.8423    9.0610 O.3       1 FMN        -0.5642
     28 P          -1.6250   -2.3782   10.5562 P.3       1 FMN         1.3127
     29 O1P        -3.1470   -2.2704   10.5707 O.co2     1 FMN        -0.9243
     30 O2P        -0.9259   -1.4069   11.5027 O.co2     1 FMN        -0.9243
     31 O3P        -1.0947   -3.8069   10.6315 O.co2     1 FMN        -0.9243
     32 HN3         3.6607   -8.2239    2.5509 H         1 FMN         0.3334
     33 H6          3.2920   -2.4807   -1.1791 H         1 FMN         0.1447
     34 HM71        1.5822   -0.3820   -2.6964 H         1 FMN         0.0392
     35 HM72        1.8243    0.8717   -1.4550 H         1 FMN         0.0392
     36 HM73        3.1694   -0.1698   -1.9170 H         1 FMN         0.0392
     37 HM81       -1.0476    0.1680   -0.7429 H         1 FMN         0.0535
     38 HM82       -0.6692    0.6350    0.9334 H         1 FMN         0.0535
     39 HM83        0.3769    1.1733   -0.3794 H         1 FMN         0.0535
     40 H9         -0.6349   -1.6256    1.7128 H         1 FMN         0.1971
     41 H1'1       -0.9287   -4.7387    3.3617 H         1 FMN         0.1123
     42 H1'2       -1.2289   -3.2002    2.5315 H         1 FMN         0.1123
     43 H2'         0.0940   -1.9572    4.1093 H         1 FMN         0.0570
     44 HO2'        1.8193   -3.4013    4.0605 H         1 FMN         0.4322
     45 H3'        -1.2309   -4.1963    5.7562 H         1 FMN         0.0570
     46 HO3'       -2.6130   -3.1202    4.3218 H         1 FMN         0.4323
     47 H4'        -0.4483   -1.3536    6.5847 H         1 FMN         0.0270
     48 HO4'        0.4250   -3.9123    7.4143 H         1 FMN         0.4672
     49 H5'1       -2.6216   -2.0838    7.6348 H         1 FMN         0.0181
     50 H5'2       -1.8202   -3.5833    8.1941 H         1 FMN         0.0181
@<TRIPOS>BOND
     1    1    2 ar
     2    1   18 ar
     3    2    3 2
     4    2    4 ar
     5    4    5 ar
     6    4   32 1
     7    5    6 2
     8    5    7 ar
     9    7    8 ar
    10    7   18 ar
    11    8    9 ar
    12    9   10 ar
    13    9   16 ar
    14   10   11 ar
    15   10   33 1
    16   11   12 1
    17   11   13 ar
    18   12   34 1
    19   12   35 1
    20   12   36 1
    21   13   14 1
    22   13   15 ar
    23   14   37 1
    24   14   38 1
    25   14   39 1
    26   15   16 ar
    27   15   40 1
    28   16   17 ar
    29   17   18 ar
    30   17   19 1
    31   19   20 1
    32   19   41 1
    33   19   42 1
    34   20   21 1
    35   20   22 1
    36   20   43 1
    37   21   44 1
    38   22   23 1
    39   22   24 1
    40   22   45 1
    41   23   46 1
    42   24   25 1
    43   24   26 1
    44   24   47 1
    45   25   48 1
    46   26   27 1
    47   26   49 1
    48   26   50 1
    49   27   28 1
    50   28   29 2
    51   28   30 1
    52   28   31 1
@<TRIPOS>SUBSTRUCTURE
     1 FMN         1 GROUP 0 A     ****
@<TRIPOS>MOLECULE
[5-(7,8-dimethyl-2,4-dioxo-benzo[g]pteridin-10-yl)-2,3,4-trihydroxy-pentyl] phosphate
   50    52     1     0     0
SMALL
USER_CHARGES

@<TRIPOS>ATOM
      1 N1          1.2277   -6.1042    3.2212 N.2       1 FMN        -0.6988
      2 C2          2.0186   -7.2293    3.3119 C.ar      1 FMN         0.8536
      3 O2          1.7830   -8.1102    4.1421 O.2       1 FMN        -0.6019
      4 N3          3.1050   -7.3794    2.4494 N.pl3     1 FMN        -0.6223
      5 C4          3.4932   -6.4908    1.4752 C.ar      1 FMN         0.6334
      6 O4          4.4350   -6.5937    0.7081 O.2       1 FMN        -0.6125
      7 C4A         2.6001   -5.2945    1.4253 C.ar      1 FMN         0.2211
      8 N5          2.8818   -4.3956    0.5389 N.2       1 FMN        -0.4286
      9 C5A         2.0834   -3.2454    0.4374 C.ar      1 FMN         0.0170
     10 C6          2.4298   -2.2996   -0.5398 C.ar      1 FMN        -0.0553
     11 C7          1.6851   -1.1351   -0.6992 C.ar      1 FMN        -0.1211
     12 C7M         2.0850   -0.1527   -1.7495 C.3       1 FMN        -0.0435
     13 C8          0.5864   -0.9067    0.1183 C.ar      1 FMN        -0.0173
     14 C8M        -0.2342    0.3332   -0.0271 C.3       1 FMN        -0.0630
     15 C9          0.2330   -1.8421    1.0943 C.ar      1 FMN        -0.1390
     16 C9A         0.9704   -3.0274    1.2749 C.ar      1 FMN         0.1887
     17 N10         0.6547   -4.0033    2.2457 N.pl3     1 FMN        -0.5294
     18 C10         1.4328   -5.1491    2.3626 C.ar      1 FMN         0.6151
     19 C1'        -0.5012   -3.7679    3.1095 C.3       1 FMN         0.1741
     20 C2'        -1.7519   -4.3580    2.4592 C.3       1 FMN         0.1411
     21 O2'        -1.7067   -4.0980    1.0556 O.3       1 FMN        -0.6334
     22 C3'        -3.0471   -3.7617    3.0455 C.3       1 FMN         0.1067
     23 O3'        -3.0636   -2.3505    2.8353 O.3       1 FMN        -0.6301
     24 C4'        -3.2091   -4.0374    4.5525 C.3       1 FMN         0.0813
     25 O4'        -3.2395   -5.4494    4.7696 O.3       1 FMN        -0.6796
     26 C5'        -4.4915   -3.4311    5.1206 C.3       1 FMN         0.1813
     27 O5'        -4.2776   -2.0427    5.3549 O.3       1 FMN        -0.5642
     28 P          -5.5625   -1.0151    5.2357 P.3       1 FMN         1.3127
     29 O1P        -6.0477   -1.1641    3.7968 O.co2     1 FMN        -0.9243
     30 O2P        -4.9542    0.3492    5.5466 O.co2     1 FMN        -0.9243
     31 O3P        -6.5527   -1.5065    6.2876 O.co2     1 FMN        -0.9243
     32 HN3         3.6607   -8.2239    2.5509 H         1 FMN         0.3334
     33 H6          3.2920   -2.4807   -1.1791 H         1 FMN         0.1447
     34 HM71        1.5822   -0.3820   -2.6964 H         1 FMN         0.0392
     35 HM72        1.8243    0.8717   -1.4550 H         1 FMN         0.0392
     36 HM73        3.1694   -0.1698   -1.9170 H         1 FMN         0.0392
     37 HM81       -1.0476    0.1680   -0.7429 H         1 FMN         0.0535
     38 HM82       -0.6692    0.6350    0.9334 H         1 FMN         0.0535
     39 HM83        0.3769    1.1733   -0.3794 H         1 FMN         0.0535
     40 H9         -0.6349   -1.6256    1.7128 H         1 FMN         0.1971
     41 H1'1       -0.5966   -2.6906    3.2480 H         1 FMN         0.1123
     42 H1'2       -0.2877   -4.2309    4.0717 H         1 FMN         0.1123
     43 H2'        -1.7472   -5.4461    2.5961 H         1 FMN         0.0570
     44 HO2'       -2.5116   -4.4850    0.6800 H         1 FMN         0.4322
     45 H3'        -3.9172   -4.1899    2.5315 H         1 FMN         0.0570
     46 HO3'       -3.0242   -2.2154    1.8763 H         1 FMN         0.4323
     47 H4'        -2.3457   -3.6474    5.1036 H         1 FMN         0.0270
     48 HO4'       -3.9974   -5.7858    4.2689 H         1 FMN         0.4672
     49 H5'1       -5.3252   -3.5242    4.4172 H         1 FMN         0.0181
     50 H5'2       -4.7589   -3.8987    6.0733 H         1 FMN         0.0181
@<TRIPOS>BOND
     1    1    2 ar
     2    1   18 ar
     3    2    3 2
     4    2    4 ar
     5    4    5 ar
     6    4   32 1
     7    5    6 2
     8    5    7 ar
     9    7    8 ar
    10    7   18 ar
    11    8    9 ar
    12    9   10 ar
    13    9   16 ar
    14   10   11 ar
    15   10   33 1
    16   11   12 1
    17   11   13 ar
    18   12   34 1
    19   12   35 1
    20   12   36 1
    21   13   14 1
    22   13   15 ar
    23   14   37 1
    24   14   38 1
    25   14   39 1
    26   15   16 ar
    27   15   40 1
    28   16   17 ar
    29   17   18 ar
    30   17   19 1
    31   19   20 1
    32   19   41 1
    33   19   42 1
    34   20   21 1
    35   20   22 1
    36   20   43 1
    37   21   44 1
    38   22   23 1
    39   22   24 1
    40   22   45 1
    41   23   46 1
    42   24   25 1
    43   24   26 1
    44   24   47 1
    45   25   48 1
    46   26   27 1
    47   26   49 1
    48   26   50 1
    49   27   28 1
    50   28   29 2
    51   28   30 1
    52   28   31 1
@<TRIPOS>SUBSTRUCTURE
     1 FMN         1 GROUP 0 A     ****
@<TRIPOS>MOLECULE
[5-(7,8-dimethyl-2,4-dioxo-benzo[g]pteridin-10-yl)-2,3,4-trihydroxy-pentyl] phosphate
   50    52     1     0     0
SMALL
USER_CHARGES

@<TRIPOS>ATOM
      1 N1          1.2277   -6.1042    3.2212 N.2       1 FMN        -0.6988
      2 C2          2.0186   -7.2293    3.3119 C.ar      1 FMN         0.8536
      3 O2          1.7830   -8.1102    4.1421 O.2       1 FMN        -0.6019
      4 N3          3.1050   -7.3794    2.4494 N.pl3     1 FMN        -0.6223
      5 C4          3.4932   -6.4908    1.4752 C.ar      1 FMN         0.6334
      6 O4          4.4350   -6.5937    0.7081 O.2       1 FMN        -0.6125
      7 C4A         2.6001   -5.2945    1.4253 C.ar      1 FMN         0.2211
      8 N5          2.8818   -4.3956    0.5389 N.2       1 FMN        -0.4286
      9 C5A         2.0834   -3.2454    0.4374 C.ar      1 FMN         0.0170
     10 C6          2.4298   -2.2996   -0.5398 C.ar      1 FMN        -0.0553
     11 C7          1.6851   -1.1351   -0.6992 C.ar      1 FMN        -0.1211
     12 C7M         2.0850   -0.1527   -1.7495 C.3       1 FMN        -0.0435
     13 C8          0.5864   -0.9067    0.1183 C.ar      1 FMN        -0.0173
     14 C8M        -0.2342    0.3332   -0.0271 C.3       1 FMN        -0.0630
     15 C9          0.2330   -1.8421    1.0943 C.ar      1 FMN        -0.1390
     16 C9A         0.9704   -3.0274    1.2749 C.ar      1 FMN         0.1887
     17 N10         0.6547   -4.0033    2.2457 N.pl3     1 FMN        -0.5294
     18 C10         1.4328   -5.1491    2.3626 C.ar      1 FMN         0.6151
     19 C1'        -0.5012   -3.7679    3.1095 C.3       1 FMN         0.1741
     20 C2'        -0.0563   -3.0138    4.3619 C.3       1 FMN         0.1411
     21 O2'         0.9124   -3.8026    5.0539 O.3       1 FMN        -0.6334
     22 C3'        -1.2361   -2.7121    5.3074 C.3       1 FMN         0.1067
     23 O3'        -0.8842   -1.6462    6.1884 O.3       1 FMN        -0.6301
     24 C4'        -1.6587   -3.9297    6.1511 C.3       1 FMN         0.0813
     25 O4'        -2.9911   -3.7297    6.6273 O.3       1 FMN        -0.6796
     26 C5'        -0.7418   -4.1517    7.3532 C.3       1 FMN         0.1813
     27 O5'        -0.8856   -5.4973    7.7971 O.3       1 FMN        -0.5642
     28 P           0.4067   -6.2363    8.5075 P.3       1 FMN         1.3127
     29 O1P         1.4972   -6.2237    7.4403 O.co2     1 FMN        -0.9243
     30 O2P        -0.1204   -7.6294    8.8384 O.co2     1 FMN        -0.9243
     31 O3P         0.7170   -5.3834    9.7341 O.co2     1 FMN        -0.9243
     32 HN3         3.6607   -8.2239    2.5509 H         1 FMN         0.3334
     33 H6          3.2920   -2.4807   -1.1791 H         1 FMN         0.1447
     34 HM71        1.5822   -0.3820   -2.6964 H         1 FMN         0.0392
     35 HM72        1.8243    0.8717   -1.4550 H         1 FMN         0.0392
     36 HM73        3.1694   -0.1698   -1.9170 H         1 FMN         0.0392
     37 HM81       -1.0476    0.1680   -0.7429 H         1 FMN         0.0535
     38 HM82       -0.6692    0.6350    0.9334 H         1 FMN         0.0535
     39 HM83        0.3769    1.1733   -0.3794 H         1 FMN         0.0535
     40 H9         -0.6349   -1.6256    1.7128 H         1 FMN         0.1971
     41 H1'1       -0.9287   -4.7387    3.3617 H         1 FMN         0.1123
     42 H1'2       -1.2289   -3.2002    2.5315 H         1 FMN         0.1123
     43 H2'         0.4300   -2.0775    4.0623 H         1 FMN         0.0570
     44 HO2'        1.6504   -3.9304    4.4392 H         1 FMN         0.4322
     45 H3'        -2.1073   -2.3923    4.7215 H         1 FMN         0.0570
     46 HO3'       -1.6536   -1.4959    6.7584 H         1 FMN         0.4323
     47 H4'        -1.6728   -4.8334    5.5310 H         1 FMN         0.0270
     48 HO4'       -3.2144   -4.5144    7.1495 H         1 FMN         0.4672
     49 H5'1        0.3098   -4.0003    7.0890 H         1 FMN         0.0181
     50 H5'2       -1.0128   -3.4902    8.1818 H         1 FMN         0.0181
@<TRIPOS>BOND
     1    1    2 ar
     2    1   18 ar
     3    2    3 2
     4    2    4 ar
     5    4    5 ar
     6    4   32 1
     7    5    6 2
     8    5    7 ar
     9    7    8 ar
    10    7   18 ar
    11    8    9 ar
    12    9   10 ar
    13    9   16 ar
    14   10   11 ar
    15   10   33 1
    16   11   12 1
    17   11   13 ar
    18   12   34 1
    19   12   35 1
    20   12   36 1
    21   13   14 1
    22   13   15 ar
    23   14   37 1
    24   14   38 1
    25   14   39 1
    26   15   16 ar
    27   15   40 1
    28   16   17 ar
    29   17   18 ar
    30   17   19 1
    31   19   20 1
    32   19   41 1
    33   19   42 1
    34   20   21 1
    35   20   22 1
    36   20   43 1
    37   21   44 1
    38   22   23 1
    39   22   24 1
    40   22   45 1
    41   23   46 1
    42   24   25 1
    43   24   26 1
    44   24   47 1
    45   25   48 1
    46   26   27 1
    47   26   49 1
    48   26   50 1
    49   27   28 1
    50   28   29 2
    51   28   30 1
    52   28   31 1
@<TRIPOS>SUBSTRUCTURE
     1 FMN         1 GROUP 0 A     ****
@<TRIPOS>MOLECULE
[5-(7,8-dimethyl-2,4-dioxo-benzo[g]pteridin-10-yl)-2,3,4-trihydroxy-pentyl] phosphate
   50    52     1     0     0
SMALL
USER_CHARGES

@<TRIPOS>ATOM
      1 N1          1.2277   -6.1042    3.2212 N.2       1 FMN        -0.6988
      2 C2          2.0186   -7.2293    3.3119 C.ar      1 FMN         0.8536
      3 O2          1.7830   -8.1102    4.1421 O.2       1 FMN        -0.6019
      4 N3          3.1050   -7.3794    2.4494 N.pl3     1 FMN        -0.6223
      5 C4          3.4932   -6.4908    1.4752 C.ar      1 FMN         0.6334
      6 O4          4.4350   -6.5937    0.7081 O.2       1 FMN        -0.6125
      7 C4A         2.6001   -5.2945    1.4253 C.ar      1 FMN         0.2211
      8 N5          2.8818   -4.3956    0.5389 N.2       1 FMN        -0.4286
      9 C5A         2.0834   -3.2454    0.4374 C.ar      1 FMN         0.0170
     10 C6          2.4298   -2.2996   -0.5398 C.ar      1 FMN        -0.0553
     11 C7          1.6851   -1.1351   -0.6992 C.ar      1 FMN        -0.1211
     12 C7M         2.0850   -0.1527   -1.7495 C.3       1 FMN        -0.0435
     13 C8          0.5864   -0.9067    0.1183 C.ar      1 FMN        -0.0173
     14 C8M        -0.2342    0.3332   -0.0271 C.3       1 FMN        -0.0630
     15 C9          0.2330   -1.8421    1.0943 C.ar      1 FMN        -0.1390
     16 C9A         0.9704   -3.0274    1.2749 C.ar      1 FMN         0.1887
     17 N10         0.6547   -4.0033    2.2457 N.pl3     1 FMN        -0.5294
     18 C10         1.4328   -5.1491    2.3626 C.ar      1 FMN         0.6151
     19 C1'        -0.5012   -3.7679    3.1095 C.3       1 FMN         0.1741
     20 C2'        -0.0563   -3.0138    4.3619 C.3       1 FMN         0.1411
     21 O2'         0.9124   -3.8026    5.0539 O.3       1 FMN        -0.6334
     22 C3'        -1.2361   -2.7121    5.3074 C.3       1 FMN         0.1067
     23 O3'        -0.7630   -2.0092    6.4555 O.3       1 FMN        -0.6301
     24 C4'        -1.9729   -3.9813    5.7756 C.3       1 FMN         0.0813
     25 O4'        -3.0450   -3.6073    6.6432 O.3       1 FMN        -0.6796
     26 C5'        -1.0543   -4.9444    6.5263 C.3       1 FMN         0.1813
     27 O5'        -1.8104   -6.0847    6.9217 O.3       1 FMN        -0.5642
     28 P          -1.3495   -7.5683    6.3671 P.3       1 FMN         1.3127
     29 O1P        -1.4461   -7.4631    4.8480 O.co2     1 FMN        -0.9243
     30 O2P        -2.3739   -8.5124    6.9893 O.co2     1 FMN        -0.9243
     31 O3P         0.0693   -7.7578    6.8956 O.co2     1 FMN        -0.9243
     32 HN3         3.6607   -8.2239    2.5509 H         1 FMN         0.3334
     33 H6          3.2920   -2.4807   -1.1791 H         1 FMN         0.1447
     34 HM71        1.5822   -0.3820   -2.6964 H         1 FMN         0.0392
     35 HM72        1.8243    0.8717   -1.4550 H         1 FMN         0.0392
     36 HM73        3.1694   -0.1698   -1.9170 H         1 FMN         0.0392
     37 HM81       -1.0476    0.1680   -0.7429 H         1 FMN         0.0535
     38 HM82       -0.6692    0.6350    0.9334 H         1 FMN         0.0535
     39 HM83        0.3769    1.1733   -0.3794 H         1 FMN         0.0535
     40 H9         -0.6349   -1.6256    1.7128 H         1 FMN         0.1971
     41 H1'1       -0.9287   -4.7387    3.3617 H         1 FMN         0.1123
     42 H1'2       -1.2289   -3.2002    2.5315 H         1 FMN         0.1123
     43 H2'         0.4300   -2.0775    4.0623 H         1 FMN         0.0570
     44 HO2'        1.1692   -3.2943    5.8378 H         1 FMN         0.4322
     45 H3'        -1.9655   -2.0711    4.7959 H         1 FMN         0.0570
     46 HO3'       -0.3629   -1.1887    6.1296 H         1 FMN         0.4323
     47 H4'        -2.4203   -4.4973    4.9182 H         1 FMN         0.0270
     48 HO4'       -3.4781   -4.4310    6.9119 H         1 FMN         0.4672
     49 H5'1       -0.2344   -5.2943    5.8907 H         1 FMN         0.0181
     50 H5'2       -0.6479   -4.4772    7.4286 H         1 FMN         0.0181
@<TRIPOS>BOND
     1    1    2 ar
     2    1   18 ar
     3    2    3 2
     4    2    4 ar
     5    4    5 ar
     6    4   32 1
     7    5    6 2
     8    5    7 ar
     9    7    8 ar
    10    7   18 ar
    11    8    9 ar
    12    9   10 ar
    13    9   16 ar
    14   10   11 ar
    15   10   33 1
    16   11   12 1
    17   11   13 ar
    18   12   34 1
    19   12   35 1
    20   12   36 1
    21   13   14 1
    22   13   15 ar
    23   14   37 1
    24   14   38 1
    25   14   39 1
    26   15   16 ar
    27   15   40 1
    28   16   17 ar
    29   17   18 ar
    30   17   19 1
    31   19   20 1
    32   19   41 1
    33   19   42 1
    34   20   21 1
    35   20   22 1
    36   20   43 1
    37   21   44 1
    38   22   23 1
    39   22   24 1
    40   22   45 1
    41   23   46 1
    42   24   25 1
    43   24   26 1
    44   24   47 1
    45   25   48 1
    46   26   27 1
    47   26   49 1
    48   26   50 1
    49   27   28 1
    50   28   29 2
    51   28   30 1
    52   28   31 1
@<TRIPOS>SUBSTRUCTURE
     1 FMN         1 GROUP 0 A     ****
@<TRIPOS>MOLECULE
[5-(7,8-dimethyl-2,4-dioxo-benzo[g]pteridin-10-yl)-2,3,4-trihydroxy-pentyl] phosphate
   50    52     1     0     0
SMALL
USER_CHARGES

@<TRIPOS>ATOM
      1 N1          1.2277   -6.1042    3.2212 N.2       1 FMN        -0.6988
      2 C2          2.0186   -7.2293    3.3119 C.ar      1 FMN         0.8536
      3 O2          1.7830   -8.1102    4.1421 O.2       1 FMN        -0.6019
      4 N3          3.1050   -7.3794    2.4494 N.pl3     1 FMN        -0.6223
      5 C4          3.4932   -6.4908    1.4752 C.ar      1 FMN         0.6334
      6 O4          4.4350   -6.5937    0.7081 O.2       1 FMN        -0.6125
      7 C4A         2.6001   -5.2945    1.4253 C.ar      1 FMN         0.2211
      8 N5          2.8818   -4.3956    0.5389 N.2       1 FMN        -0.4286
      9 C5A         2.0834   -3.2454    0.4374 C.ar      1 FMN         0.0170
     10 C6          2.4298   -2.2996   -0.5398 C.ar      1 FMN        -0.0553
     11 C7          1.6851   -1.1351   -0.6992 C.ar      1 FMN        -0.1211
     12 C7M         2.0850   -0.1527   -1.7495 C.3       1 FMN        -0.0435
     13 C8          0.5864   -0.9067    0.1183 C.ar      1 FMN        -0.0173
     14 C8M        -0.2342    0.3332   -0.0271 C.3       1 FMN        -0.0630
     15 C9          0.2330   -1.8421    1.0943 C.ar      1 FMN        -0.1390
     16 C9A         0.9704   -3.0274    1.2749 C.ar      1 FMN         0.1887
     17 N10         0.6547   -4.0033    2.2457 N.pl3     1 FMN        -0.5294
     18 C10         1.4328   -5.1491    2.3626 C.ar      1 FMN         0.6151
     19 C1'        -0.5012   -3.7679    3.1095 C.3       1 FMN         0.1741
     20 C2'        -0.0563   -3.0138    4.3619 C.3       1 FMN         0.1411
     21 O2'         0.5241   -3.9440    5.2770 O.3       1 FMN        -0.6334
     22 C3'        -1.2298   -2.2882    5.0499 C.3       1 FMN         0.1067
     23 O3'        -1.5040   -1.0654    4.3675 O.3       1 FMN        -0.6301
     24 C4'        -0.9577   -1.9744    6.5333 C.3       1 FMN         0.0813
     25 O4'         0.3997   -1.5528    6.6815 O.3       1 FMN        -0.6796
     26 C5'        -1.1917   -3.1842    7.4368 C.3       1 FMN         0.1813
     27 O5'        -2.5485   -3.5975    7.3072 O.3       1 FMN        -0.5642
     28 P          -3.0655   -4.8951    8.1848 P.3       1 FMN         1.3127
     29 O1P        -2.1903   -6.0544    7.7177 O.co2     1 FMN        -0.9243
     30 O2P        -4.5330   -5.0277    7.7889 O.co2     1 FMN        -0.9243
     31 O3P        -2.8503   -4.4911    9.6404 O.co2     1 FMN        -0.9243
     32 HN3         3.6607   -8.2239    2.5509 H         1 FMN         0.3334
     33 H6          3.2920   -2.4807   -1.1791 H         1 FMN         0.1447
     34 HM71        1.5822   -0.3820   -2.6964 H         1 FMN         0.0392
     35 HM72        1.8243    0.8717   -1.4550 H         1 FMN         0.0392
     36 HM73        3.1694   -0.1698   -1.9170 H         1 FMN         0.0392
     37 HM81       -1.0476    0.1680   -0.7429 H         1 FMN         0.0535
     38 HM82       -0.6692    0.6350    0.9334 H         1 FMN         0.0535
     39 HM83        0.3769    1.1733   -0.3794 H         1 FMN         0.0535
     40 H9         -0.6349   -1.6256    1.7128 H         1 FMN         0.1971
     41 H1'1       -0.9287   -4.7387    3.3617 H         1 FMN         0.1123
     42 H1'2       -1.2289   -3.2002    2.5315 H         1 FMN         0.1123
     43 H2'         0.7199   -2.2895    4.0870 H         1 FMN         0.0570
     44 HO2'        1.2793   -4.3426    4.8192 H         1 FMN         0.4322
     45 H3'        -2.1311   -2.9124    4.9998 H         1 FMN         0.0570
     46 HO3'       -2.2442   -0.6499    4.8354 H         1 FMN         0.4323
     47 H4'        -1.5892   -1.1426    6.8663 H         1 FMN         0.0270
     48 HO4'        0.5006   -0.7613    6.1323 H         1 FMN         0.4672
     49 H5'1       -0.5586   -4.0292    7.1478 H         1 FMN         0.0181
     50 H5'2       -1.0129   -2.9314    8.4865 H         1 FMN         0.0181
@<TRIPOS>BOND
     1    1    2 ar
     2    1   18 ar
     3    2    3 2
     4    2    4 ar
     5    4    5 ar
     6    4   32 1
     7    5    6 2
     8    5    7 ar
     9    7    8 ar
    10    7   18 ar
    11    8    9 ar
    12    9   10 ar
    13    9   16 ar
    14   10   11 ar
    15   10   33 1
    16   11   12 1
    17   11   13 ar
    18   12   34 1
    19   12   35 1
    20   12   36 1
    21   13   14 1
    22   13   15 ar
    23   14   37 1
    24   14   38 1
    25   14   39 1
    26   15   16 ar
    27   15   40 1
    28   16   17 ar
    29   17   18 ar
    30   17   19 1
    31   19   20 1
    32   19   41 1
    33   19   42 1
    34   20   21 1
    35   20   22 1
    36   20   43 1
    37   21   44 1
    38   22   23 1
    39   22   24 1
    40   22   45 1
    41   23   46 1
    42   24   25 1
    43   24   26 1
    44   24   47 1
    45   25   48 1
    46   26   27 1
    47   26   49 1
    48   26   50 1
    49   27   28 1
    50   28   29 2
    51   28   30 1
    52   28   31 1
@<TRIPOS>SUBSTRUCTURE
     1 FMN         1 GROUP 0 A     ****
@<TRIPOS>MOLECULE
[5-(7,8-dimethyl-2,4-dioxo-benzo[g]pteridin-10-yl)-2,3,4-trihydroxy-pentyl] phosphate
   50    52     1     0     0
SMALL
USER_CHARGES

@<TRIPOS>ATOM
      1 N1          1.2277   -6.1042    3.2212 N.2       1 FMN        -0.6988
      2 C2          2.0186   -7.2293    3.3119 C.ar      1 FMN         0.8536
      3 O2          1.7830   -8.1102    4.1421 O.2       1 FMN        -0.6019
      4 N3          3.1050   -7.3794    2.4494 N.pl3     1 FMN        -0.6223
      5 C4          3.4932   -6.4908    1.4752 C.ar      1 FMN         0.6334
      6 O4          4.4350   -6.5937    0.7081 O.2       1 FMN        -0.6125
      7 C4A         2.6001   -5.2945    1.4253 C.ar      1 FMN         0.2211
      8 N5          2.8818   -4.3956    0.5389 N.2       1 FMN        -0.4286
      9 C5A         2.0834   -3.2454    0.4374 C.ar      1 FMN         0.0170
     10 C6          2.4298   -2.2996   -0.5398 C.ar      1 FMN        -0.0553
     11 C7          1.6851   -1.1351   -0.6992 C.ar      1 FMN        -0.1211
     12 C7M         2.0850   -0.1527   -1.7495 C.3       1 FMN        -0.0435
     13 C8          0.5864   -0.9067    0.1183 C.ar      1 FMN        -0.0173
     14 C8M        -0.2342    0.3332   -0.0271 C.3       1 FMN        -0.0630
     15 C9          0.2330   -1.8421    1.0943 C.ar      1 FMN        -0.1390
     16 C9A         0.9704   -3.0274    1.2749 C.ar      1 FMN         0.1887
     17 N10         0.6547   -4.0033    2.2457 N.pl3     1 FMN        -0.5294
     18 C10         1.4328   -5.1491    2.3626 C.ar      1 FMN         0.6151
     19 C1'        -0.5012   -3.7679    3.1095 C.3       1 FMN         0.1741
     20 C2'        -0.0563   -3.0138    4.3619 C.3       1 FMN         0.1411
     21 O2'         1.2000   -3.5387    4.7929 O.3       1 FMN        -0.6334
     22 C3'        -1.0797   -3.1379    5.5082 C.3       1 FMN         0.1067
     23 O3'        -2.1528   -2.2220    5.2945 O.3       1 FMN        -0.6301
     24 C4'        -0.4673   -2.8644    6.8950 C.3       1 FMN         0.0813
     25 O4'        -1.4830   -3.0012    7.8908 O.3       1 FMN        -0.6796
     26 C5'         0.1309   -1.4623    7.0012 C.3       1 FMN         0.1813
     27 O5'         0.6726   -1.2927    8.3074 O.3       1 FMN        -0.5642
     28 P           0.0745   -0.0855    9.2591 P.3       1 FMN         1.3127
     29 O1P         0.3530    1.1974    8.4813 O.co2     1 FMN        -0.9243
     30 O2P         0.8823   -0.2171   10.5468 O.co2     1 FMN        -0.9243
     31 O3P        -1.4067   -0.4145    9.4203 O.co2     1 FMN        -0.9243
     32 HN3         3.6607   -8.2239    2.5509 H         1 FMN         0.3334
     33 H6          3.2920   -2.4807   -1.1791 H         1 FMN         0.1447
     34 HM71        1.5822   -0.3820   -2.6964 H         1 FMN         0.0392
     35 HM72        1.8243    0.8717   -1.4550 H         1 FMN         0.0392
     36 HM73        3.1694   -0.1698   -1.9170 H         1 FMN         0.0392
     37 HM81       -1.0476    0.1680   -0.7429 H         1 FMN         0.0535
     38 HM82       -0.6692    0.6350    0.9334 H         1 FMN         0.0535
     39 HM83        0.3769    1.1733   -0.3794 H         1 FMN         0.0535
     40 H9         -0.6349   -1.6256    1.7128 H         1 FMN         0.1971
     41 H1'1       -0.9287   -4.7387    3.3617 H         1 FMN         0.1123
     42 H1'2       -1.2289   -3.2002    2.5315 H         1 FMN         0.1123
     43 H2'         0.0940   -1.9572    4.1093 H         1 FMN         0.0570
     44 HO2'        1.0537   -4.4779    4.9808 H         1 FMN         0.4322
     45 H3'        -1.4989   -4.1521    5.5217 H         1 FMN         0.0570
     46 HO3'       -2.5540   -2.4626    4.4456 H         1 FMN         0.4323
     47 H4'         0.3049   -3.6087    7.1213 H         1 FMN         0.0270
     48 HO4'       -1.8080   -3.9114    7.8251 H         1 FMN         0.4672
     49 H5'1        0.9447   -1.3180    6.2833 H         1 FMN         0.0181
     50 H5'2       -0.6351   -0.6956    6.8493 H         1 FMN         0.0181
@<TRIPOS>BOND
     1    1    2 ar
     2    1   18 ar
     3    2    3 2
     4    2    4 ar
     5    4    5 ar
     6    4   32 1
     7    5    6 2
     8    5    7 ar
     9    7    8 ar
    10    7   18 ar
    11    8    9 ar
    12    9   10 ar
    13    9   16 ar
    14   10   11 ar
    15   10   33 1
    16   11   12 1
    17   11   13 ar
    18   12   34 1
    19   12   35 1
    20   12   36 1
    21   13   14 1
    22   13   15 ar
    23   14   37 1
    24   14   38 1
    25   14   39 1
    26   15   16 ar
    27   15   40 1
    28   16   17 ar
    29   17   18 ar
    30   17   19 1
    31   19   20 1
    32   19   41 1
    33   19   42 1
    34   20   21 1
    35   20   22 1
    36   20   43 1
    37   21   44 1
    38   22   23 1
    39   22   24 1
    40   22   45 1
    41   23   46 1
    42   24   25 1
    43   24   26 1
    44   24   47 1
    45   25   48 1
    46   26   27 1
    47   26   49 1
    48   26   50 1
    49   27   28 1
    50   28   29 2
    51   28   30 1
    52   28   31 1
@<TRIPOS>SUBSTRUCTURE
     1 FMN         1 GROUP 0 A     ****
@<TRIPOS>MOLECULE
[5-(7,8-dimethyl-2,4-dioxo-benzo[g]pteridin-10-yl)-2,3,4-trihydroxy-pentyl] phosphate
   50    52     1     0     0
SMALL
USER_CHARGES

@<TRIPOS>ATOM
      1 N1          1.2277   -6.1042    3.2212 N.2       1 FMN        -0.6988
      2 C2          2.0186   -7.2293    3.3119 C.ar      1 FMN         0.8536
      3 O2          1.7830   -8.1102    4.1421 O.2       1 FMN        -0.6019
      4 N3          3.1050   -7.3794    2.4494 N.pl3     1 FMN        -0.6223
      5 C4          3.4932   -6.4908    1.4752 C.ar      1 FMN         0.6334
      6 O4          4.4350   -6.5937    0.7081 O.2       1 FMN        -0.6125
      7 C4A         2.6001   -5.2945    1.4253 C.ar      1 FMN         0.2211
      8 N5          2.8818   -4.3956    0.5389 N.2       1 FMN        -0.4286
      9 C5A         2.0834   -3.2454    0.4374 C.ar      1 FMN         0.0170
     10 C6          2.4298   -2.2996   -0.5398 C.ar      1 FMN        -0.0553
     11 C7          1.6851   -1.1351   -0.6992 C.ar      1 FMN        -0.1211
     12 C7M         2.0850   -0.1527   -1.7495 C.3       1 FMN        -0.0435
     13 C8          0.5864   -0.9067    0.1183 C.ar      1 FMN        -0.0173
     14 C8M        -0.2342    0.3332   -0.0271 C.3       1 FMN        -0.0630
     15 C9          0.2330   -1.8421    1.0943 C.ar      1 FMN        -0.1390
     16 C9A         0.9704   -3.0274    1.2749 C.ar      1 FMN         0.1887
     17 N10         0.6547   -4.0033    2.2457 N.pl3     1 FMN        -0.5294
     18 C10         1.4328   -5.1491    2.3626 C.ar      1 FMN         0.6151
     19 C1'        -0.5012   -3.7679    3.1095 C.3       1 FMN         0.1741
     20 C2'        -1.7519   -4.3580    2.4592 C.3       1 FMN         0.1411
     21 O2'        -2.2248   -3.4496    1.4638 O.3       1 FMN        -0.6334
     22 C3'        -2.8727   -4.6164    3.4857 C.3       1 FMN         0.1067
     23 O3'        -2.9224   -3.5412    4.4226 O.3       1 FMN        -0.6301
     24 C4'        -2.6891   -5.9359    4.2592 C.3       1 FMN         0.0813
     25 O4'        -1.4481   -5.8953    4.9665 O.3       1 FMN        -0.6796
     26 C5'        -2.6831   -7.1549    3.3378 C.3       1 FMN         0.1813
     27 O5'        -3.9253   -7.2109    2.6436 O.3       1 FMN        -0.5642
     28 P          -3.9572   -7.8783    1.1354 P.3       1 FMN         1.3127
     29 O1P        -3.0119   -7.0131    0.3070 O.co2     1 FMN        -0.9243
     30 O2P        -5.4227   -7.7607    0.7274 O.co2     1 FMN        -0.9243
     31 O3P        -3.4828   -9.3147    1.3354 O.co2     1 FMN        -0.9243
     32 HN3         3.6607   -8.2239    2.5509 H         1 FMN         0.3334
     33 H6          3.2920   -2.4807   -1.1791 H         1 FMN         0.1447
     34 HM71        1.5822   -0.3820   -2.6964 H         1 FMN         0.0392
     35 HM72        1.8243    0.8717   -1.4550 H         1 FMN         0.0392
     36 HM73        3.1694   -0.1698   -1.9170 H         1 FMN         0.0392
     37 HM81       -1.0476    0.1680   -0.7429 H         1 FMN         0.0535
     38 HM82       -0.6692    0.6350    0.9334 H         1 FMN         0.0535
     39 HM83        0.3769    1.1733   -0.3794 H         1 FMN         0.0535
     40 H9         -0.6349   -1.6256    1.7128 H         1 FMN         0.1971
     41 H1'1       -0.5966   -2.6906    3.2480 H         1 FMN         0.1123
     42 H1'2       -0.2877   -4.2309    4.0717 H         1 FMN         0.1123
     43 H2'        -1.4853   -5.2946    1.9549 H         1 FMN         0.0570
     44 HO2'       -3.0142   -3.8561    1.0759 H         1 FMN         0.4322
     45 H3'        -3.8416   -4.6616    2.9720 H         1 FMN         0.0570
     46 HO3'       -3.6380   -3.7498    5.0422 H         1 FMN         0.4323
     47 H4'        -3.4810   -6.0488    5.0086 H         1 FMN         0.0270
     48 HO4'       -1.5037   -5.1403    5.5709 H         1 FMN         0.4672
     49 H5'1       -1.8874   -7.0877    2.5889 H         1 FMN         0.0181
     50 H5'2       -2.5727   -8.0805    3.9112 H         1 FMN         0.0181
@<TRIPOS>BOND
     1    1    2 ar
     2    1   18 ar
     3    2    3 2
     4    2    4 ar
     5    4    5 ar
     6    4   32 1
     7    5    6 2
     8    5    7 ar
     9    7    8 ar
    10    7   18 ar
    11    8    9 ar
    12    9   10 ar
    13    9   16 ar
    14   10   11 ar
    15   10   33 1
    16   11   12 1
    17   11   13 ar
    18   12   34 1
    19   12   35 1
    20   12   36 1
    21   13   14 1
    22   13   15 ar
    23   14   37 1
    24   14   38 1
    25   14   39 1
    26   15   16 ar
    27   15   40 1
    28   16   17 ar
    29   17   18 ar
    30   17   19 1
    31   19   20 1
    32   19   41 1
    33   19   42 1
    34   20   21 1
    35   20   22 1
    36   20   43 1
    37   21   44 1
    38   22   23 1
    39   22   24 1
    40   22   45 1
    41   23   46 1
    42   24   25 1
    43   24   26 1
    44   24   47 1
    45   25   48 1
    46   26   27 1
    47   26   49 1
    48   26   50 1
    49   27   28 1
    50   28   29 2
    51   28   30 1
    52   28   31 1
@<TRIPOS>SUBSTRUCTURE
     1 FMN         1 GROUP 0 A     ****
@<TRIPOS>MOLECULE
[5-(7,8-dimethyl-2,4-dioxo-benzo[g]pteridin-10-yl)-2,3,4-trihydroxy-pentyl] phosphate
   50    52     1     0     0
SMALL
USER_CHARGES

@<TRIPOS>ATOM
      1 N1          1.2277   -6.1042    3.2212 N.2       1 FMN        -0.6988
      2 C2          2.0186   -7.2293    3.3119 C.ar      1 FMN         0.8536
      3 O2          1.7830   -8.1102    4.1421 O.2       1 FMN        -0.6019
      4 N3          3.1050   -7.3794    2.4494 N.pl3     1 FMN        -0.6223
      5 C4          3.4932   -6.4908    1.4752 C.ar      1 FMN         0.6334
      6 O4          4.4350   -6.5937    0.7081 O.2       1 FMN        -0.6125
      7 C4A         2.6001   -5.2945    1.4253 C.ar      1 FMN         0.2211
      8 N5          2.8818   -4.3956    0.5389 N.2       1 FMN        -0.4286
      9 C5A         2.0834   -3.2454    0.4374 C.ar      1 FMN         0.0170
     10 C6          2.4298   -2.2996   -0.5398 C.ar      1 FMN        -0.0553
     11 C7          1.6851   -1.1351   -0.6992 C.ar      1 FMN        -0.1211
     12 C7M         2.0850   -0.1527   -1.7495 C.3       1 FMN        -0.0435
     13 C8          0.5864   -0.9067    0.1183 C.ar      1 FMN        -0.0173
     14 C8M        -0.2342    0.3332   -0.0271 C.3       1 FMN        -0.0630
     15 C9          0.2330   -1.8421    1.0943 C.ar      1 FMN        -0.1390
     16 C9A         0.9704   -3.0274    1.2749 C.ar      1 FMN         0.1887
     17 N10         0.6547   -4.0033    2.2457 N.pl3     1 FMN        -0.5294
     18 C10         1.4328   -5.1491    2.3626 C.ar      1 FMN         0.6151
     19 C1'        -0.5012   -3.7679    3.1095 C.3       1 FMN         0.1741
     20 C2'        -0.0563   -3.0138    4.3619 C.3       1 FMN         0.1411
     21 O2'         1.2000   -3.5387    4.7929 O.3       1 FMN        -0.6334
     22 C3'        -1.0797   -3.1379    5.5082 C.3       1 FMN         0.1067
     23 O3'        -1.2466   -4.5118    5.8556 O.3       1 FMN        -0.6301
     24 C4'        -2.4578   -2.5486    5.1523 C.3       1 FMN         0.0813
     25 O4'        -2.9842   -3.2407    4.0183 O.3       1 FMN        -0.6796
     26 C5'        -2.3860   -1.0585    4.8214 C.3       1 FMN         0.1813
     27 O5'        -3.6953   -0.5956    4.5055 O.3       1 FMN        -0.5642
     28 P          -3.8549    0.6541    3.4407 P.3       1 FMN         1.3127
     29 O1P        -3.1060    1.8151    4.0884 O.co2     1 FMN        -0.9243
     30 O2P        -5.3647    0.8589    3.3594 O.co2     1 FMN        -0.9243
     31 O3P        -3.2278    0.1450    2.1462 O.co2     1 FMN        -0.9243
     32 HN3         3.6607   -8.2239    2.5509 H         1 FMN         0.3334
     33 H6          3.2920   -2.4807   -1.1791 H         1 FMN         0.1447
     34 HM71        1.5822   -0.3820   -2.6964 H         1 FMN         0.0392
     35 HM72        1.8243    0.8717   -1.4550 H         1 FMN         0.0392
     36 HM73        3.1694   -0.1698   -1.9170 H         1 FMN         0.0392
     37 HM81       -1.0476    0.1680   -0.7429 H         1 FMN         0.0535
     38 HM82       -0.6692    0.6350    0.9334 H         1 FMN         0.0535
     39 HM83        0.3769    1.1733   -0.3794 H         1 FMN         0.0535
     40 H9         -0.6349   -1.6256    1.7128 H         1 FMN         0.1971
     41 H1'1       -0.9287   -4.7387    3.3617 H         1 FMN         0.1123
     42 H1'2       -1.2289   -3.2002    2.5315 H         1 FMN         0.1123
     43 H2'         0.0940   -1.9572    4.1093 H         1 FMN         0.0570
     44 HO2'        1.4481   -3.0384    5.5846 H         1 FMN         0.4322
     45 H3'        -0.7081   -2.6082    6.3948 H         1 FMN         0.0570
     46 HO3'       -0.3753   -4.8323    6.1341 H         1 FMN         0.4323
     47 H4'        -3.1614   -2.7057    5.9779 H         1 FMN         0.0270
     48 HO4'       -3.0579   -4.1712    4.2771 H         1 FMN         0.4672
     49 H5'1       -2.0249   -0.4752    5.6745 H         1 FMN         0.0181
     50 H5'2       -1.7440   -0.8790    3.9536 H         1 FMN         0.0181
@<TRIPOS>BOND
     1    1    2 ar
     2    1   18 ar
     3    2    3 2
     4    2    4 ar
     5    4    5 ar
     6    4   32 1
     7    5    6 2
     8    5    7 ar
     9    7    8 ar
    10    7   18 ar
    11    8    9 ar
    12    9   10 ar
    13    9   16 ar
    14   10   11 ar
    15   10   33 1
    16   11   12 1
    17   11   13 ar
    18   12   34 1
    19   12   35 1
    20   12   36 1
    21   13   14 1
    22   13   15 ar
    23   14   37 1
    24   14   38 1
    25   14   39 1
    26   15   16 ar
    27   15   40 1
    28   16   17 ar
    29   17   18 ar
    30   17   19 1
    31   19   20 1
    32   19   41 1
    33   19   42 1
    34   20   21 1
    35   20   22 1
    36   20   43 1
    37   21   44 1
    38   22   23 1
    39   22   24 1
    40   22   45 1
    41   23   46 1
    42   24   25 1
    43   24   26 1
    44   24   47 1
    45   25   48 1
    46   26   27 1
    47   26   49 1
    48   26   50 1
    49   27   28 1
    50   28   29 2
    51   28   30 1
    52   28   31 1
@<TRIPOS>SUBSTRUCTURE
     1 FMN         1 GROUP 0 A     ****
@<TRIPOS>MOLECULE
[5-(7,8-dimethyl-2,4-dioxo-benzo[g]pteridin-10-yl)-2,3,4-trihydroxy-pentyl] phosphate
   50    52     1     0     0
SMALL
USER_CHARGES

@<TRIPOS>ATOM
      1 N1          1.2277   -6.1042    3.2212 N.2       1 FMN        -0.6988
      2 C2          2.0186   -7.2293    3.3119 C.ar      1 FMN         0.8536
      3 O2          1.7830   -8.1102    4.1421 O.2       1 FMN        -0.6019
      4 N3          3.1050   -7.3794    2.4494 N.pl3     1 FMN        -0.6223
      5 C4          3.4932   -6.4908    1.4752 C.ar      1 FMN         0.6334
      6 O4          4.4350   -6.5937    0.7081 O.2       1 FMN        -0.6125
      7 C4A         2.6001   -5.2945    1.4253 C.ar      1 FMN         0.2211
      8 N5          2.8818   -4.3956    0.5389 N.2       1 FMN        -0.4286
      9 C5A         2.0834   -3.2454    0.4374 C.ar      1 FMN         0.0170
     10 C6          2.4298   -2.2996   -0.5398 C.ar      1 FMN        -0.0553
     11 C7          1.6851   -1.1351   -0.6992 C.ar      1 FMN        -0.1211
     12 C7M         2.0850   -0.1527   -1.7495 C.3       1 FMN        -0.0435
     13 C8          0.5864   -0.9067    0.1183 C.ar      1 FMN        -0.0173
     14 C8M        -0.2342    0.3332   -0.0271 C.3       1 FMN        -0.0630
     15 C9          0.2330   -1.8421    1.0943 C.ar      1 FMN        -0.1390
     16 C9A         0.9704   -3.0274    1.2749 C.ar      1 FMN         0.1887
     17 N10         0.6547   -4.0033    2.2457 N.pl3     1 FMN        -0.5294
     18 C10         1.4328   -5.1491    2.3626 C.ar      1 FMN         0.6151
     19 C1'        -0.5012   -3.7679    3.1095 C.3       1 FMN         0.1741
     20 C2'        -1.7519   -4.3580    2.4592 C.3       1 FMN         0.1411
     21 O2'        -1.7067   -4.0980    1.0556 O.3       1 FMN        -0.6334
     22 C3'        -3.0471   -3.7617    3.0455 C.3       1 FMN         0.1067
     23 O3'        -3.1081   -4.0307    4.4455 O.3       1 FMN        -0.6301
     24 C4'        -4.3210   -4.3173    2.3810 C.3       1 FMN         0.0813
     25 O4'        -4.2916   -4.0134    0.9850 O.3       1 FMN        -0.6796
     26 C5'        -5.5959   -3.7251    2.9801 C.3       1 FMN         0.1813
     27 O5'        -6.7207   -4.2889    2.3128 O.3       1 FMN        -0.5642
     28 P          -8.0924   -3.3830    2.1755 P.3       1 FMN         1.3127
     29 O1P        -8.5140   -3.0950    3.6134 O.co2     1 FMN        -0.9243
     30 O2P        -9.0491   -4.3018    1.4215 O.co2     1 FMN        -0.9243
     31 O3P        -7.6665   -2.1489    1.3856 O.co2     1 FMN        -0.9243
     32 HN3         3.6607   -8.2239    2.5509 H         1 FMN         0.3334
     33 H6          3.2920   -2.4807   -1.1791 H         1 FMN         0.1447
     34 HM71        1.5822   -0.3820   -2.6964 H         1 FMN         0.0392
     35 HM72        1.8243    0.8717   -1.4550 H         1 FMN         0.0392
     36 HM73        3.1694   -0.1698   -1.9170 H         1 FMN         0.0392
     37 HM81       -1.0476    0.1680   -0.7429 H         1 FMN         0.0535
     38 HM82       -0.6692    0.6350    0.9334 H         1 FMN         0.0535
     39 HM83        0.3769    1.1733   -0.3794 H         1 FMN         0.0535
     40 H9         -0.6349   -1.6256    1.7128 H         1 FMN         0.1971
     41 H1'1       -0.5966   -2.6906    3.2480 H         1 FMN         0.1123
     42 H1'2       -0.2877   -4.2309    4.0717 H         1 FMN         0.1123
     43 H2'        -1.7472   -5.4461    2.5961 H         1 FMN         0.0570
     44 HO2'       -0.9027   -4.5253    0.7244 H         1 FMN         0.4322
     45 H3'        -3.0471   -2.6725    2.9106 H         1 FMN         0.0570
     46 HO3'       -3.0979   -4.9952    4.5404 H         1 FMN         0.4323
     47 H4'        -4.3489   -5.4094    2.4702 H         1 FMN         0.0270
     48 HO4'       -4.2542   -3.0478    0.9172 H         1 FMN         0.4672
     49 H5'1       -5.6876   -3.9642    4.0444 H         1 FMN         0.0181
     50 H5'2       -5.6280   -2.6400    2.8417 H         1 FMN         0.0181
@<TRIPOS>BOND
     1    1    2 ar
     2    1   18 ar
     3    2    3 2
     4    2    4 ar
     5    4    5 ar
     6    4   32 1
     7    5    6 2
     8    5    7 ar
     9    7    8 ar
    10    7   18 ar
    11    8    9 ar
    12    9   10 ar
    13    9   16 ar
    14   10   11 ar
    15   10   33 1
    16   11   12 1
    17   11   13 ar
    18   12   34 1
    19   12   35 1
    20   12   36 1
    21   13   14 1
    22   13   15 ar
    23   14   37 1
    24   14   38 1
    25   14   39 1
    26   15   16 ar
    27   15   40 1
    28   16   17 ar
    29   17   18 ar
    30   17   19 1
    31   19   20 1
    32   19   41 1
    33   19   42 1
    34   20   21 1
    35   20   22 1
    36   20   43 1
    37   21   44 1
    38   22   23 1
    39   22   24 1
    40   22   45 1
    41   23   46 1
    42   24   25 1
    43   24   26 1
    44   24   47 1
    45   25   48 1
    46   26   27 1
    47   26   49 1
    48   26   50 1
    49   27   28 1
    50   28   29 2
    51   28   30 1
    52   28   31 1
@<TRIPOS>SUBSTRUCTURE
     1 FMN         1 GROUP 0 A     ****
@<TRIPOS>MOLECULE
[5-(7,8-dimethyl-2,4-dioxo-benzo[g]pteridin-10-yl)-2,3,4-trihydroxy-pentyl] phosphate
   50    52     1     0     0
SMALL
USER_CHARGES

@<TRIPOS>ATOM
      1 N1          1.2277   -6.1042    3.2212 N.2       1 FMN        -0.6988
      2 C2          2.0186   -7.2293    3.3119 C.ar      1 FMN         0.8536
      3 O2          1.7830   -8.1102    4.1421 O.2       1 FMN        -0.6019
      4 N3          3.1050   -7.3794    2.4494 N.pl3     1 FMN        -0.6223
      5 C4          3.4932   -6.4908    1.4752 C.ar      1 FMN         0.6334
      6 O4          4.4350   -6.5937    0.7081 O.2       1 FMN        -0.6125
      7 C4A         2.6001   -5.2945    1.4253 C.ar      1 FMN         0.2211
      8 N5          2.8818   -4.3956    0.5389 N.2       1 FMN        -0.4286
      9 C5A         2.0834   -3.2454    0.4374 C.ar      1 FMN         0.0170
     10 C6          2.4298   -2.2996   -0.5398 C.ar      1 FMN        -0.0553
     11 C7          1.6851   -1.1351   -0.6992 C.ar      1 FMN        -0.1211
     12 C7M         2.0850   -0.1527   -1.7495 C.3       1 FMN        -0.0435
     13 C8          0.5864   -0.9067    0.1183 C.ar      1 FMN        -0.0173
     14 C8M        -0.2342    0.3332   -0.0271 C.3       1 FMN        -0.0630
     15 C9          0.2330   -1.8421    1.0943 C.ar      1 FMN        -0.1390
     16 C9A         0.9704   -3.0274    1.2749 C.ar      1 FMN         0.1887
     17 N10         0.6547   -4.0033    2.2457 N.pl3     1 FMN        -0.5294
     18 C10         1.4328   -5.1491    2.3626 C.ar      1 FMN         0.6151
     19 C1'        -0.5012   -3.7679    3.1095 C.3       1 FMN         0.1741
     20 C2'        -0.0563   -3.0138    4.3619 C.3       1 FMN         0.1411
     21 O2'         0.5241   -3.9440    5.2770 O.3       1 FMN        -0.6334
     22 C3'        -1.2298   -2.2882    5.0499 C.3       1 FMN         0.1067
     23 O3'        -0.7569   -1.6035    6.2091 O.3       1 FMN        -0.6301
     24 C4'        -2.3650   -3.2413    5.4693 C.3       1 FMN         0.0813
     25 O4'        -1.7975   -4.4467    5.9861 O.3       1 FMN        -0.6796
     26 C5'        -3.2855   -3.5990    4.3033 C.3       1 FMN         0.1813
     27 O5'        -4.5243   -4.0697    4.8249 O.3       1 FMN        -0.5642
     28 P          -5.7041   -4.5259    3.7662 P.3       1 FMN         1.3127
     29 O1P        -6.0015   -3.2710    2.9507 O.co2     1 FMN        -0.9243
     30 O2P        -6.8489   -4.9587    4.6773 O.co2     1 FMN        -0.9243
     31 O3P        -5.0862   -5.6665    2.9627 O.co2     1 FMN        -0.9243
     32 HN3         3.6607   -8.2239    2.5509 H         1 FMN         0.3334
     33 H6          3.2920   -2.4807   -1.1791 H         1 FMN         0.1447
     34 HM71        1.5822   -0.3820   -2.6964 H         1 FMN         0.0392
     35 HM72        1.8243    0.8717   -1.4550 H         1 FMN         0.0392
     36 HM73        3.1694   -0.1698   -1.9170 H         1 FMN         0.0392
     37 HM81       -1.0476    0.1680   -0.7429 H         1 FMN         0.0535
     38 HM82       -0.6692    0.6350    0.9334 H         1 FMN         0.0535
     39 HM83        0.3769    1.1733   -0.3794 H         1 FMN         0.0535
     40 H9         -0.6349   -1.6256    1.7128 H         1 FMN         0.1971
     41 H1'1       -0.9287   -4.7387    3.3617 H         1 FMN         0.1123
     42 H1'2       -1.2289   -3.2002    2.5315 H         1 FMN         0.1123
     43 H2'         0.7199   -2.2895    4.0870 H         1 FMN         0.0570
     44 HO2'        0.7926   -3.4314    6.0542 H         1 FMN         0.4322
     45 H3'        -1.6548   -1.5417    4.3667 H         1 FMN         0.0570
     46 HO3'       -0.0916   -0.9695    5.9012 H         1 FMN         0.4323
     47 H4'        -2.9559   -2.7940    6.2769 H         1 FMN         0.0270
     48 HO4'       -1.2577   -4.1888    6.7480 H         1 FMN         0.4672
     49 H5'1       -3.4992   -2.7259    3.6784 H         1 FMN         0.0181
     50 H5'2       -2.8516   -4.3945    3.6896 H         1 FMN         0.0181
@<TRIPOS>BOND
     1    1    2 ar
     2    1   18 ar
     3    2    3 2
     4    2    4 ar
     5    4    5 ar
     6    4   32 1
     7    5    6 2
     8    5    7 ar
     9    7    8 ar
    10    7   18 ar
    11    8    9 ar
    12    9   10 ar
    13    9   16 ar
    14   10   11 ar
    15   10   33 1
    16   11   12 1
    17   11   13 ar
    18   12   34 1
    19   12   35 1
    20   12   36 1
    21   13   14 1
    22   13   15 ar
    23   14   37 1
    24   14   38 1
    25   14   39 1
    26   15   16 ar
    27   15   40 1
    28   16   17 ar
    29   17   18 ar
    30   17   19 1
    31   19   20 1
    32   19   41 1
    33   19   42 1
    34   20   21 1
    35   20   22 1
    36   20   43 1
    37   21   44 1
    38   22   23 1
    39   22   24 1
    40   22   45 1
    41   23   46 1
    42   24   25 1
    43   24   26 1
    44   24   47 1
    45   25   48 1
    46   26   27 1
    47   26   49 1
    48   26   50 1
    49   27   28 1
    50   28   29 2
    51   28   30 1
    52   28   31 1
@<TRIPOS>SUBSTRUCTURE
     1 FMN         1 GROUP 0 A     ****
@<TRIPOS>MOLECULE
[5-(7,8-dimethyl-2,4-dioxo-benzo[g]pteridin-10-yl)-2,3,4-trihydroxy-pentyl] phosphate
   50    52     1     0     0
SMALL
USER_CHARGES

@<TRIPOS>ATOM
      1 N1          1.2277   -6.1042    3.2212 N.2       1 FMN        -0.6988
      2 C2          2.0186   -7.2293    3.3119 C.ar      1 FMN         0.8536
      3 O2          1.7830   -8.1102    4.1421 O.2       1 FMN        -0.6019
      4 N3          3.1050   -7.3794    2.4494 N.pl3     1 FMN        -0.6223
      5 C4          3.4932   -6.4908    1.4752 C.ar      1 FMN         0.6334
      6 O4          4.4350   -6.5937    0.7081 O.2       1 FMN        -0.6125
      7 C4A         2.6001   -5.2945    1.4253 C.ar      1 FMN         0.2211
      8 N5          2.8818   -4.3956    0.5389 N.2       1 FMN        -0.4286
      9 C5A         2.0834   -3.2454    0.4374 C.ar      1 FMN         0.0170
     10 C6          2.4298   -2.2996   -0.5398 C.ar      1 FMN        -0.0553
     11 C7          1.6851   -1.1351   -0.6992 C.ar      1 FMN        -0.1211
     12 C7M         2.0850   -0.1527   -1.7495 C.3       1 FMN        -0.0435
     13 C8          0.5864   -0.9067    0.1183 C.ar      1 FMN        -0.0173
     14 C8M        -0.2342    0.3332   -0.0271 C.3       1 FMN        -0.0630
     15 C9          0.2330   -1.8421    1.0943 C.ar      1 FMN        -0.1390
     16 C9A         0.9704   -3.0274    1.2749 C.ar      1 FMN         0.1887
     17 N10         0.6547   -4.0033    2.2457 N.pl3     1 FMN        -0.5294
     18 C10         1.4328   -5.1491    2.3626 C.ar      1 FMN         0.6151
     19 C1'        -0.5012   -3.7679    3.1095 C.3       1 FMN         0.1741
     20 C2'        -0.0563   -3.0138    4.3619 C.3       1 FMN         0.1411
     21 O2'         1.2000   -3.5387    4.7929 O.3       1 FMN        -0.6334
     22 C3'        -1.0797   -3.1379    5.5082 C.3       1 FMN         0.1067
     23 O3'        -2.3343   -2.6010    5.0914 O.3       1 FMN        -0.6301
     24 C4'        -0.6360   -2.4132    6.7932 C.3       1 FMN         0.0813
     25 O4'        -0.0218   -1.1716    6.4423 O.3       1 FMN        -0.6796
     26 C5'         0.3607   -3.2342    7.6101 C.3       1 FMN         0.1813
     27 O5'        -0.2528   -4.4656    7.9785 O.3       1 FMN        -0.5642
     28 P           0.6173   -5.5442    8.8732 P.3       1 FMN         1.3127
     29 O1P         1.8281   -5.8805    8.0077 O.co2     1 FMN        -0.9243
     30 O2P        -0.3508   -6.7081    9.0636 O.co2     1 FMN        -0.9243
     31 O3P         0.9526   -4.7997   10.1622 O.co2     1 FMN        -0.9243
     32 HN3         3.6607   -8.2239    2.5509 H         1 FMN         0.3334
     33 H6          3.2920   -2.4807   -1.1791 H         1 FMN         0.1447
     34 HM71        1.5822   -0.3820   -2.6964 H         1 FMN         0.0392
     35 HM72        1.8243    0.8717   -1.4550 H         1 FMN         0.0392
     36 HM73        3.1694   -0.1698   -1.9170 H         1 FMN         0.0392
     37 HM81       -1.0476    0.1680   -0.7429 H         1 FMN         0.0535
     38 HM82       -0.6692    0.6350    0.9334 H         1 FMN         0.0535
     39 HM83        0.3769    1.1733   -0.3794 H         1 FMN         0.0535
     40 H9         -0.6349   -1.6256    1.7128 H         1 FMN         0.1971
     41 H1'1       -0.9287   -4.7387    3.3617 H         1 FMN         0.1123
     42 H1'2       -1.2289   -3.2002    2.5315 H         1 FMN         0.1123
     43 H2'         0.0940   -1.9572    4.1093 H         1 FMN         0.0570
     44 HO2'        1.0537   -4.4779    4.9808 H         1 FMN         0.4322
     45 H3'        -1.2309   -4.1963    5.7562 H         1 FMN         0.0570
     46 HO3'       -2.1749   -1.6710    4.8698 H         1 FMN         0.4323
     47 H4'        -1.5077   -2.1749    7.4136 H         1 FMN         0.0270
     48 HO4'        0.2401   -0.7522    7.2753 H         1 FMN         0.4672
     49 H5'1        1.2572   -3.4714    7.0284 H         1 FMN         0.0181
     50 H5'2        0.6444   -2.7088    8.5272 H         1 FMN         0.0181
@<TRIPOS>BOND
     1    1    2 ar
     2    1   18 ar
     3    2    3 2
     4    2    4 ar
     5    4    5 ar
     6    4   32 1
     7    5    6 2
     8    5    7 ar
     9    7    8 ar
    10    7   18 ar
    11    8    9 ar
    12    9   10 ar
    13    9   16 ar
    14   10   11 ar
    15   10   33 1
    16   11   12 1
    17   11   13 ar
    18   12   34 1
    19   12   35 1
    20   12   36 1
    21   13   14 1
    22   13   15 ar
    23   14   37 1
    24   14   38 1
    25   14   39 1
    26   15   16 ar
    27   15   40 1
    28   16   17 ar
    29   17   18 ar
    30   17   19 1
    31   19   20 1
    32   19   41 1
    33   19   42 1
    34   20   21 1
    35   20   22 1
    36   20   43 1
    37   21   44 1
    38   22   23 1
    39   22   24 1
    40   22   45 1
    41   23   46 1
    42   24   25 1
    43   24   26 1
    44   24   47 1
    45   25   48 1
    46   26   27 1
    47   26   49 1
    48   26   50 1
    49   27   28 1
    50   28   29 2
    51   28   30 1
    52   28   31 1
@<TRIPOS>SUBSTRUCTURE
     1 FMN         1 GROUP 0 A     ****
@<TRIPOS>MOLECULE
[5-(7,8-dimethyl-2,4-dioxo-benzo[g]pteridin-10-yl)-2,3,4-trihydroxy-pentyl] phosphate
   50    52     1     0     0
SMALL
USER_CHARGES

@<TRIPOS>ATOM
      1 N1          1.2277   -6.1042    3.2212 N.2       1 FMN        -0.6988
      2 C2          2.0186   -7.2293    3.3119 C.ar      1 FMN         0.8536
      3 O2          1.7830   -8.1102    4.1421 O.2       1 FMN        -0.6019
      4 N3          3.1050   -7.3794    2.4494 N.pl3     1 FMN        -0.6223
      5 C4          3.4932   -6.4908    1.4752 C.ar      1 FMN         0.6334
      6 O4          4.4350   -6.5937    0.7081 O.2       1 FMN        -0.6125
      7 C4A         2.6001   -5.2945    1.4253 C.ar      1 FMN         0.2211
      8 N5          2.8818   -4.3956    0.5389 N.2       1 FMN        -0.4286
      9 C5A         2.0834   -3.2454    0.4374 C.ar      1 FMN         0.0170
     10 C6          2.4298   -2.2996   -0.5398 C.ar      1 FMN        -0.0553
     11 C7          1.6851   -1.1351   -0.6992 C.ar      1 FMN        -0.1211
     12 C7M         2.0850   -0.1527   -1.7495 C.3       1 FMN        -0.0435
     13 C8          0.5864   -0.9067    0.1183 C.ar      1 FMN        -0.0173
     14 C8M        -0.2342    0.3332   -0.0271 C.3       1 FMN        -0.0630
     15 C9          0.2330   -1.8421    1.0943 C.ar      1 FMN        -0.1390
     16 C9A         0.9704   -3.0274    1.2749 C.ar      1 FMN         0.1887
     17 N10         0.6547   -4.0033    2.2457 N.pl3     1 FMN        -0.5294
     18 C10         1.4328   -5.1491    2.3626 C.ar      1 FMN         0.6151
     19 C1'        -0.5012   -3.7679    3.1095 C.3       1 FMN         0.1741
     20 C2'        -0.0563   -3.0138    4.3619 C.3       1 FMN         0.1411
     21 O2'         1.2000   -3.5387    4.7929 O.3       1 FMN        -0.6334
     22 C3'        -1.0797   -3.1379    5.5082 C.3       1 FMN         0.1067
     23 O3'        -0.8754   -2.0852    6.4496 O.3       1 FMN        -0.6301
     24 C4'        -0.9937   -4.4855    6.2496 C.3       1 FMN         0.0813
     25 O4'        -1.2418   -5.5457    5.3241 O.3       1 FMN        -0.6796
     26 C5'        -2.0064   -4.5888    7.3892 C.3       1 FMN         0.1813
     27 O5'        -1.8605   -5.8581    8.0184 O.3       1 FMN        -0.5642
     28 P          -2.8440   -6.2260    9.2905 P.3       1 FMN         1.3127
     29 O1P        -2.5385   -5.1607   10.3393 O.co2     1 FMN        -0.9243
     30 O2P        -2.3996   -7.6309    9.6865 O.co2     1 FMN        -0.9243
     31 O3P        -4.2580   -6.1607    8.7208 O.co2     1 FMN        -0.9243
     32 HN3         3.6607   -8.2239    2.5509 H         1 FMN         0.3334
     33 H6          3.2920   -2.4807   -1.1791 H         1 FMN         0.1447
     34 HM71        1.5822   -0.3820   -2.6964 H         1 FMN         0.0392
     35 HM72        1.8243    0.8717   -1.4550 H         1 FMN         0.0392
     36 HM73        3.1694   -0.1698   -1.9170 H         1 FMN         0.0392
     37 HM81       -1.0476    0.1680   -0.7429 H         1 FMN         0.0535
     38 HM82       -0.6692    0.6350    0.9334 H         1 FMN         0.0535
     39 HM83        0.3769    1.1733   -0.3794 H         1 FMN         0.0535
     40 H9         -0.6349   -1.6256    1.7128 H         1 FMN         0.1971
     41 H1'1       -0.9287   -4.7387    3.3617 H         1 FMN         0.1123
     42 H1'2       -1.2289   -3.2002    2.5315 H         1 FMN         0.1123
     43 H2'         0.0940   -1.9572    4.1093 H         1 FMN         0.0570
     44 HO2'        1.4481   -3.0384    5.5846 H         1 FMN         0.4322
     45 H3'        -2.0970   -3.0404    5.1081 H         1 FMN         0.0570
     46 HO3'       -0.9991   -1.2552    5.9645 H         1 FMN         0.4323
     47 H4'         0.0174   -4.6362    6.6451 H         1 FMN         0.0270
     48 HO4'       -1.1782   -6.3693    5.8300 H         1 FMN         0.4672
     49 H5'1       -1.8346   -3.8201    8.1494 H         1 FMN         0.0181
     50 H5'2       -3.0311   -4.5126    7.0125 H         1 FMN         0.0181
@<TRIPOS>BOND
     1    1    2 ar
     2    1   18 ar
     3    2    3 2
     4    2    4 ar
     5    4    5 ar
     6    4   32 1
     7    5    6 2
     8    5    7 ar
     9    7    8 ar
    10    7   18 ar
    11    8    9 ar
    12    9   10 ar
    13    9   16 ar
    14   10   11 ar
    15   10   33 1
    16   11   12 1
    17   11   13 ar
    18   12   34 1
    19   12   35 1
    20   12   36 1
    21   13   14 1
    22   13   15 ar
    23   14   37 1
    24   14   38 1
    25   14   39 1
    26   15   16 ar
    27   15   40 1
    28   16   17 ar
    29   17   18 ar
    30   17   19 1
    31   19   20 1
    32   19   41 1
    33   19   42 1
    34   20   21 1
    35   20   22 1
    36   20   43 1
    37   21   44 1
    38   22   23 1
    39   22   24 1
    40   22   45 1
    41   23   46 1
    42   24   25 1
    43   24   26 1
    44   24   47 1
    45   25   48 1
    46   26   27 1
    47   26   49 1
    48   26   50 1
    49   27   28 1
    50   28   29 2
    51   28   30 1
    52   28   31 1
@<TRIPOS>SUBSTRUCTURE
     1 FMN         1 GROUP 0 A     ****
@<TRIPOS>MOLECULE
[5-(7,8-dimethyl-2,4-dioxo-benzo[g]pteridin-10-yl)-2,3,4-trihydroxy-pentyl] phosphate
   50    52     1     0     0
SMALL
USER_CHARGES

@<TRIPOS>ATOM
      1 N1          1.2277   -6.1042    3.2212 N.2       1 FMN        -0.6988
      2 C2          2.0186   -7.2293    3.3119 C.ar      1 FMN         0.8536
      3 O2          1.7830   -8.1102    4.1421 O.2       1 FMN        -0.6019
      4 N3          3.1050   -7.3794    2.4494 N.pl3     1 FMN        -0.6223
      5 C4          3.4932   -6.4908    1.4752 C.ar      1 FMN         0.6334
      6 O4          4.4350   -6.5937    0.7081 O.2       1 FMN        -0.6125
      7 C4A         2.6001   -5.2945    1.4253 C.ar      1 FMN         0.2211
      8 N5          2.8818   -4.3956    0.5389 N.2       1 FMN        -0.4286
      9 C5A         2.0834   -3.2454    0.4374 C.ar      1 FMN         0.0170
     10 C6          2.4298   -2.2996   -0.5398 C.ar      1 FMN        -0.0553
     11 C7          1.6851   -1.1351   -0.6992 C.ar      1 FMN        -0.1211
     12 C7M         2.0850   -0.1527   -1.7495 C.3       1 FMN        -0.0435
     13 C8          0.5864   -0.9067    0.1183 C.ar      1 FMN        -0.0173
     14 C8M        -0.2342    0.3332   -0.0271 C.3       1 FMN        -0.0630
     15 C9          0.2330   -1.8421    1.0943 C.ar      1 FMN        -0.1390
     16 C9A         0.9704   -3.0274    1.2749 C.ar      1 FMN         0.1887
     17 N10         0.6547   -4.0033    2.2457 N.pl3     1 FMN        -0.5294
     18 C10         1.4328   -5.1491    2.3626 C.ar      1 FMN         0.6151
     19 C1'        -0.5012   -3.7679    3.1095 C.3       1 FMN         0.1741
     20 C2'        -1.7519   -4.3580    2.4592 C.3       1 FMN         0.1411
     21 O2'        -1.7067   -4.0980    1.0556 O.3       1 FMN        -0.6334
     22 C3'        -3.0471   -3.7617    3.0455 C.3       1 FMN         0.1067
     23 O3'        -3.0636   -2.3505    2.8353 O.3       1 FMN        -0.6301
     24 C4'        -3.2091   -4.0374    4.5525 C.3       1 FMN         0.0813
     25 O4'        -2.1053   -3.4629    5.2550 O.3       1 FMN        -0.6796
     26 C5'        -3.2615   -5.5314    4.8688 C.3       1 FMN         0.1813
     27 O5'        -3.8621   -5.7084    6.1479 O.3       1 FMN        -0.5642
     28 P          -4.0396   -7.2411    6.7312 P.3       1 FMN         1.3127
     29 O1P        -4.9283   -7.9454    5.7102 O.co2     1 FMN        -0.9243
     30 O2P        -4.7034   -7.0285    8.0884 O.co2     1 FMN        -0.9243
     31 O3P        -2.6193   -7.7924    6.8154 O.co2     1 FMN        -0.9243
     32 HN3         3.6607   -8.2239    2.5509 H         1 FMN         0.3334
     33 H6          3.2920   -2.4807   -1.1791 H         1 FMN         0.1447
     34 HM71        1.5822   -0.3820   -2.6964 H         1 FMN         0.0392
     35 HM72        1.8243    0.8717   -1.4550 H         1 FMN         0.0392
     36 HM73        3.1694   -0.1698   -1.9170 H         1 FMN         0.0392
     37 HM81       -1.0476    0.1680   -0.7429 H         1 FMN         0.0535
     38 HM82       -0.6692    0.6350    0.9334 H         1 FMN         0.0535
     39 HM83        0.3769    1.1733   -0.3794 H         1 FMN         0.0535
     40 H9         -0.6349   -1.6256    1.7128 H         1 FMN         0.1971
     41 H1'1       -0.5966   -2.6906    3.2480 H         1 FMN         0.1123
     42 H1'2       -0.2877   -4.2309    4.0717 H         1 FMN         0.1123
     43 H2'        -1.7472   -5.4461    2.5961 H         1 FMN         0.0570
     44 HO2'       -2.5116   -4.4850    0.6800 H         1 FMN         0.4322
     45 H3'        -3.9172   -4.1899    2.5315 H         1 FMN         0.0570
     46 HO3'       -3.0242   -2.2154    1.8763 H         1 FMN         0.4323
     47 H4'        -4.1164   -3.5523    4.9306 H         1 FMN         0.0270
     48 HO4'       -2.2474   -3.6591    6.1929 H         1 FMN         0.4672
     49 H5'1       -3.8698   -6.0749    4.1387 H         1 FMN         0.0181
     50 H5'2       -2.2556   -5.9612    4.9038 H         1 FMN         0.0181
@<TRIPOS>BOND
     1    1    2 ar
     2    1   18 ar
     3    2    3 2
     4    2    4 ar
     5    4    5 ar
     6    4   32 1
     7    5    6 2
     8    5    7 ar
     9    7    8 ar
    10    7   18 ar
    11    8    9 ar
    12    9   10 ar
    13    9   16 ar
    14   10   11 ar
    15   10   33 1
    16   11   12 1
    17   11   13 ar
    18   12   34 1
    19   12   35 1
    20   12   36 1
    21   13   14 1
    22   13   15 ar
    23   14   37 1
    24   14   38 1
    25   14   39 1
    26   15   16 ar
    27   15   40 1
    28   16   17 ar
    29   17   18 ar
    30   17   19 1
    31   19   20 1
    32   19   41 1
    33   19   42 1
    34   20   21 1
    35   20   22 1
    36   20   43 1
    37   21   44 1
    38   22   23 1
    39   22   24 1
    40   22   45 1
    41   23   46 1
    42   24   25 1
    43   24   26 1
    44   24   47 1
    45   25   48 1
    46   26   27 1
    47   26   49 1
    48   26   50 1
    49   27   28 1
    50   28   29 2
    51   28   30 1
    52   28   31 1
@<TRIPOS>SUBSTRUCTURE
     1 FMN         1 GROUP 0 A     ****
@<TRIPOS>MOLECULE
[5-(7,8-dimethyl-2,4-dioxo-benzo[g]pteridin-10-yl)-2,3,4-trihydroxy-pentyl] phosphate
   50    52     1     0     0
SMALL
USER_CHARGES

@<TRIPOS>ATOM
      1 N1          1.2277   -6.1042    3.2212 N.2       1 FMN        -0.6988
      2 C2          2.0186   -7.2293    3.3119 C.ar      1 FMN         0.8536
      3 O2          1.7830   -8.1102    4.1421 O.2       1 FMN        -0.6019
      4 N3          3.1050   -7.3794    2.4494 N.pl3     1 FMN        -0.6223
      5 C4          3.4932   -6.4908    1.4752 C.ar      1 FMN         0.6334
      6 O4          4.4350   -6.5937    0.7081 O.2       1 FMN        -0.6125
      7 C4A         2.6001   -5.2945    1.4253 C.ar      1 FMN         0.2211
      8 N5          2.8818   -4.3956    0.5389 N.2       1 FMN        -0.4286
      9 C5A         2.0834   -3.2454    0.4374 C.ar      1 FMN         0.0170
     10 C6          2.4298   -2.2996   -0.5398 C.ar      1 FMN        -0.0553
     11 C7          1.6851   -1.1351   -0.6992 C.ar      1 FMN        -0.1211
     12 C7M         2.0850   -0.1527   -1.7495 C.3       1 FMN        -0.0435
     13 C8          0.5864   -0.9067    0.1183 C.ar      1 FMN        -0.0173
     14 C8M        -0.2342    0.3332   -0.0271 C.3       1 FMN        -0.0630
     15 C9          0.2330   -1.8421    1.0943 C.ar      1 FMN        -0.1390
     16 C9A         0.9704   -3.0274    1.2749 C.ar      1 FMN         0.1887
     17 N10         0.6547   -4.0033    2.2457 N.pl3     1 FMN        -0.5294
     18 C10         1.4328   -5.1491    2.3626 C.ar      1 FMN         0.6151
     19 C1'        -0.5012   -3.7679    3.1095 C.3       1 FMN         0.1741
     20 C2'        -0.0563   -3.0138    4.3619 C.3       1 FMN         0.1411
     21 O2'         0.5241   -3.9440    5.2770 O.3       1 FMN        -0.6334
     22 C3'        -1.2298   -2.2882    5.0499 C.3       1 FMN         0.1067
     23 O3'        -0.7254   -1.2573    5.8978 O.3       1 FMN        -0.6301
     24 C4'        -2.1112   -3.2308    5.8911 C.3       1 FMN         0.0813
     25 O4'        -1.3116   -3.8346    6.9100 O.3       1 FMN        -0.6796
     26 C5'        -2.7453   -4.3388    5.0513 C.3       1 FMN         0.1813
     27 O5'        -3.8683   -4.8612    5.7544 O.3       1 FMN        -0.5642
     28 P          -3.8724   -6.4607    6.1578 P.3       1 FMN         1.3127
     29 O1P        -3.7871   -7.1984    4.8249 O.co2     1 FMN        -0.9243
     30 O2P        -5.2039   -6.6396    6.8811 O.co2     1 FMN        -0.9243
     31 O3P        -2.6509   -6.6390    7.0548 O.co2     1 FMN        -0.9243
     32 HN3         3.6607   -8.2239    2.5509 H         1 FMN         0.3334
     33 H6          3.2920   -2.4807   -1.1791 H         1 FMN         0.1447
     34 HM71        1.5822   -0.3820   -2.6964 H         1 FMN         0.0392
     35 HM72        1.8243    0.8717   -1.4550 H         1 FMN         0.0392
     36 HM73        3.1694   -0.1698   -1.9170 H         1 FMN         0.0392
     37 HM81       -1.0476    0.1680   -0.7429 H         1 FMN         0.0535
     38 HM82       -0.6692    0.6350    0.9334 H         1 FMN         0.0535
     39 HM83        0.3769    1.1733   -0.3794 H         1 FMN         0.0535
     40 H9         -0.6349   -1.6256    1.7128 H         1 FMN         0.1971
     41 H1'1       -0.9287   -4.7387    3.3617 H         1 FMN         0.1123
     42 H1'2       -1.2289   -3.2002    2.5315 H         1 FMN         0.1123
     43 H2'         0.7199   -2.2895    4.0870 H         1 FMN         0.0570
     44 HO2'        0.7926   -3.4314    6.0542 H         1 FMN         0.4322
     45 H3'        -1.8700   -1.8189    4.2920 H         1 FMN         0.0570
     46 HO3'       -0.2306   -0.6499    5.3269 H         1 FMN         0.4323
     47 H4'        -2.8985   -2.6610    6.3979 H         1 FMN         0.0270
     48 HO4'       -1.9026   -4.4155    7.4115 H         1 FMN         0.4672
     49 H5'1       -3.1041   -3.9578    4.0897 H         1 FMN         0.0181
     50 H5'2       -2.0391   -5.1577    4.8833 H         1 FMN         0.0181
@<TRIPOS>BOND
     1    1    2 ar
     2    1   18 ar
     3    2    3 2
     4    2    4 ar
     5    4    5 ar
     6    4   32 1
     7    5    6 2
     8    5    7 ar
     9    7    8 ar
    10    7   18 ar
    11    8    9 ar
    12    9   10 ar
    13    9   16 ar
    14   10   11 ar
    15   10   33 1
    16   11   12 1
    17   11   13 ar
    18   12   34 1
    19   12   35 1
    20   12   36 1
    21   13   14 1
    22   13   15 ar
    23   14   37 1
    24   14   38 1
    25   14   39 1
    26   15   16 ar
    27   15   40 1
    28   16   17 ar
    29   17   18 ar
    30   17   19 1
    31   19   20 1
    32   19   41 1
    33   19   42 1
    34   20   21 1
    35   20   22 1
    36   20   43 1
    37   21   44 1
    38   22   23 1
    39   22   24 1
    40   22   45 1
    41   23   46 1
    42   24   25 1
    43   24   26 1
    44   24   47 1
    45   25   48 1
    46   26   27 1
    47   26   49 1
    48   26   50 1
    49   27   28 1
    50   28   29 2
    51   28   30 1
    52   28   31 1
@<TRIPOS>SUBSTRUCTURE
     1 FMN         1 GROUP 0 A     ****
@<TRIPOS>MOLECULE
[5-(7,8-dimethyl-2,4-dioxo-benzo[g]pteridin-10-yl)-2,3,4-trihydroxy-pentyl] phosphate
   50    52     1     0     0
SMALL
USER_CHARGES

@<TRIPOS>ATOM
      1 N1          1.2277   -6.1042    3.2212 N.2       1 FMN        -0.6988
      2 C2          2.0186   -7.2293    3.3119 C.ar      1 FMN         0.8536
      3 O2          1.7830   -8.1102    4.1421 O.2       1 FMN        -0.6019
      4 N3          3.1050   -7.3794    2.4494 N.pl3     1 FMN        -0.6223
      5 C4          3.4932   -6.4908    1.4752 C.ar      1 FMN         0.6334
      6 O4          4.4350   -6.5937    0.7081 O.2       1 FMN        -0.6125
      7 C4A         2.6001   -5.2945    1.4253 C.ar      1 FMN         0.2211
      8 N5          2.8818   -4.3956    0.5389 N.2       1 FMN        -0.4286
      9 C5A         2.0834   -3.2454    0.4374 C.ar      1 FMN         0.0170
     10 C6          2.4298   -2.2996   -0.5398 C.ar      1 FMN        -0.0553
     11 C7          1.6851   -1.1351   -0.6992 C.ar      1 FMN        -0.1211
     12 C7M         2.0850   -0.1527   -1.7495 C.3       1 FMN        -0.0435
     13 C8          0.5864   -0.9067    0.1183 C.ar      1 FMN        -0.0173
     14 C8M        -0.2342    0.3332   -0.0271 C.3       1 FMN        -0.0630
     15 C9          0.2330   -1.8421    1.0943 C.ar      1 FMN        -0.1390
     16 C9A         0.9704   -3.0274    1.2749 C.ar      1 FMN         0.1887
     17 N10         0.6547   -4.0033    2.2457 N.pl3     1 FMN        -0.5294
     18 C10         1.4328   -5.1491    2.3626 C.ar      1 FMN         0.6151
     19 C1'        -0.5012   -3.7679    3.1095 C.3       1 FMN         0.1741
     20 C2'        -1.7519   -4.3580    2.4592 C.3       1 FMN         0.1411
     21 O2'        -2.9043   -3.7429    3.0366 O.3       1 FMN        -0.6334
     22 C3'        -1.8403   -5.8851    2.6514 C.3       1 FMN         0.1067
     23 O3'        -0.9962   -6.5374    1.7038 O.3       1 FMN        -0.6301
     24 C4'        -3.2723   -6.4304    2.4933 C.3       1 FMN         0.0813
     25 O4'        -4.1175   -5.8166    3.4684 O.3       1 FMN        -0.6796
     26 C5'        -3.3417   -7.9460    2.6758 C.3       1 FMN         0.1813
     27 O5'        -2.8791   -8.2719    3.9828 O.3       1 FMN        -0.5642
     28 P          -2.1461   -9.7306    4.2196 P.3       1 FMN         1.3127
     29 O1P        -3.2034  -10.7634    3.8406 O.co2     1 FMN        -0.9243
     30 O2P        -1.7994   -9.7151    5.7053 O.co2     1 FMN        -0.9243
     31 O3P        -0.9295   -9.7088    3.2989 O.co2     1 FMN        -0.9243
     32 HN3         3.6607   -8.2239    2.5509 H         1 FMN         0.3334
     33 H6          3.2920   -2.4807   -1.1791 H         1 FMN         0.1447
     34 HM71        1.5822   -0.3820   -2.6964 H         1 FMN         0.0392
     35 HM72        1.8243    0.8717   -1.4550 H         1 FMN         0.0392
     36 HM73        3.1694   -0.1698   -1.9170 H         1 FMN         0.0392
     37 HM81       -1.0476    0.1680   -0.7429 H         1 FMN         0.0535
     38 HM82       -0.6692    0.6350    0.9334 H         1 FMN         0.0535
     39 HM83        0.3769    1.1733   -0.3794 H         1 FMN         0.0535
     40 H9         -0.6349   -1.6256    1.7128 H         1 FMN         0.1971
     41 H1'1       -0.5966   -2.6906    3.2480 H         1 FMN         0.1123
     42 H1'2       -0.2877   -4.2309    4.0717 H         1 FMN         0.1123
     43 H2'        -1.7471   -4.1167    1.3894 H         1 FMN         0.0570
     44 HO2'       -2.8274   -2.7942    2.8552 H         1 FMN         0.4322
     45 H3'        -1.4895   -6.1524    3.6564 H         1 FMN         0.0570
     46 HO3'       -1.3184   -6.2804    0.8265 H         1 FMN         0.4323
     47 H4'        -3.6728   -6.1627    1.5087 H         1 FMN         0.0270
     48 HO4'       -5.0026   -6.1864    3.3333 H         1 FMN         0.4672
     49 H5'1       -4.3687   -8.3143    2.5860 H         1 FMN         0.0181
     50 H5'2       -2.7013   -8.4588    1.9515 H         1 FMN         0.0181
@<TRIPOS>BOND
     1    1    2 ar
     2    1   18 ar
     3    2    3 2
     4    2    4 ar
     5    4    5 ar
     6    4   32 1
     7    5    6 2
     8    5    7 ar
     9    7    8 ar
    10    7   18 ar
    11    8    9 ar
    12    9   10 ar
    13    9   16 ar
    14   10   11 ar
    15   10   33 1
    16   11   12 1
    17   11   13 ar
    18   12   34 1
    19   12   35 1
    20   12   36 1
    21   13   14 1
    22   13   15 ar
    23   14   37 1
    24   14   38 1
    25   14   39 1
    26   15   16 ar
    27   15   40 1
    28   16   17 ar
    29   17   18 ar
    30   17   19 1
    31   19   20 1
    32   19   41 1
    33   19   42 1
    34   20   21 1
    35   20   22 1
    36   20   43 1
    37   21   44 1
    38   22   23 1
    39   22   24 1
    40   22   45 1
    41   23   46 1
    42   24   25 1
    43   24   26 1
    44   24   47 1
    45   25   48 1
    46   26   27 1
    47   26   49 1
    48   26   50 1
    49   27   28 1
    50   28   29 2
    51   28   30 1
    52   28   31 1
@<TRIPOS>SUBSTRUCTURE
     1 FMN         1 GROUP 0 A     ****
@<TRIPOS>MOLECULE
[5-(7,8-dimethyl-2,4-dioxo-benzo[g]pteridin-10-yl)-2,3,4-trihydroxy-pentyl] phosphate
   50    52     1     0     0
SMALL
USER_CHARGES

@<TRIPOS>ATOM
      1 N1          1.2277   -6.1042    3.2212 N.2       1 FMN        -0.6988
      2 C2          2.0186   -7.2293    3.3119 C.ar      1 FMN         0.8536
      3 O2          1.7830   -8.1102    4.1421 O.2       1 FMN        -0.6019
      4 N3          3.1050   -7.3794    2.4494 N.pl3     1 FMN        -0.6223
      5 C4          3.4932   -6.4908    1.4752 C.ar      1 FMN         0.6334
      6 O4          4.4350   -6.5937    0.7081 O.2       1 FMN        -0.6125
      7 C4A         2.6001   -5.2945    1.4253 C.ar      1 FMN         0.2211
      8 N5          2.8818   -4.3956    0.5389 N.2       1 FMN        -0.4286
      9 C5A         2.0834   -3.2454    0.4374 C.ar      1 FMN         0.0170
     10 C6          2.4298   -2.2996   -0.5398 C.ar      1 FMN        -0.0553
     11 C7          1.6851   -1.1351   -0.6992 C.ar      1 FMN        -0.1211
     12 C7M         2.0850   -0.1527   -1.7495 C.3       1 FMN        -0.0435
     13 C8          0.5864   -0.9067    0.1183 C.ar      1 FMN        -0.0173
     14 C8M        -0.2342    0.3332   -0.0271 C.3       1 FMN        -0.0630
     15 C9          0.2330   -1.8421    1.0943 C.ar      1 FMN        -0.1390
     16 C9A         0.9704   -3.0274    1.2749 C.ar      1 FMN         0.1887
     17 N10         0.6547   -4.0033    2.2457 N.pl3     1 FMN        -0.5294
     18 C10         1.4328   -5.1491    2.3626 C.ar      1 FMN         0.6151
     19 C1'        -0.5012   -3.7679    3.1095 C.3       1 FMN         0.1741
     20 C2'        -1.7519   -4.3580    2.4592 C.3       1 FMN         0.1411
     21 O2'        -2.2248   -3.4496    1.4638 O.3       1 FMN        -0.6334
     22 C3'        -2.8727   -4.6164    3.4857 C.3       1 FMN         0.1067
     23 O3'        -4.1269   -4.7133    2.8122 O.3       1 FMN        -0.6301
     24 C4'        -2.9732   -3.5152    4.5584 C.3       1 FMN         0.0813
     25 O4'        -4.0328   -3.8366    5.4616 O.3       1 FMN        -0.6796
     26 C5'        -3.2498   -2.1387    3.9555 C.3       1 FMN         0.1813
     27 O5'        -3.3272   -1.1839    5.0095 O.3       1 FMN        -0.5642
     28 P          -2.2615    0.0752    5.0136 P.3       1 FMN         1.3127
     29 O1P        -0.8857   -0.5799    5.0936 O.co2     1 FMN        -0.9243
     30 O2P        -2.6473    0.8611    6.2632 O.co2     1 FMN        -0.9243
     31 O3P        -2.5302    0.8168    3.7074 O.co2     1 FMN        -0.9243
     32 HN3         3.6607   -8.2239    2.5509 H         1 FMN         0.3334
     33 H6          3.2920   -2.4807   -1.1791 H         1 FMN         0.1447
     34 HM71        1.5822   -0.3820   -2.6964 H         1 FMN         0.0392
     35 HM72        1.8243    0.8717   -1.4550 H         1 FMN         0.0392
     36 HM73        3.1694   -0.1698   -1.9170 H         1 FMN         0.0392
     37 HM81       -1.0476    0.1680   -0.7429 H         1 FMN         0.0535
     38 HM82       -0.6692    0.6350    0.9334 H         1 FMN         0.0535
     39 HM83        0.3769    1.1733   -0.3794 H         1 FMN         0.0535
     40 H9         -0.6349   -1.6256    1.7128 H         1 FMN         0.1971
     41 H1'1       -0.5966   -2.6906    3.2480 H         1 FMN         0.1123
     42 H1'2       -0.2877   -4.2309    4.0717 H         1 FMN         0.1123
     43 H2'        -1.4853   -5.2946    1.9549 H         1 FMN         0.0570
     44 HO2'       -3.0142   -3.8561    1.0759 H         1 FMN         0.4322
     45 H3'        -2.6911   -5.5689    3.9999 H         1 FMN         0.0570
     46 HO3'       -4.7942   -4.8748    3.4965 H         1 FMN         0.4323
     47 H4'        -2.0504   -3.4765    5.1486 H         1 FMN         0.0270
     48 HO4'       -4.0599   -3.1221    6.1151 H         1 FMN         0.4672
     49 H5'1       -2.4443   -1.8259    3.2833 H         1 FMN         0.0181
     50 H5'2       -4.2031   -2.1292    3.4183 H         1 FMN         0.0181
@<TRIPOS>BOND
     1    1    2 ar
     2    1   18 ar
     3    2    3 2
     4    2    4 ar
     5    4    5 ar
     6    4   32 1
     7    5    6 2
     8    5    7 ar
     9    7    8 ar
    10    7   18 ar
    11    8    9 ar
    12    9   10 ar
    13    9   16 ar
    14   10   11 ar
    15   10   33 1
    16   11   12 1
    17   11   13 ar
    18   12   34 1
    19   12   35 1
    20   12   36 1
    21   13   14 1
    22   13   15 ar
    23   14   37 1
    24   14   38 1
    25   14   39 1
    26   15   16 ar
    27   15   40 1
    28   16   17 ar
    29   17   18 ar
    30   17   19 1
    31   19   20 1
    32   19   41 1
    33   19   42 1
    34   20   21 1
    35   20   22 1
    36   20   43 1
    37   21   44 1
    38   22   23 1
    39   22   24 1
    40   22   45 1
    41   23   46 1
    42   24   25 1
    43   24   26 1
    44   24   47 1
    45   25   48 1
    46   26   27 1
    47   26   49 1
    48   26   50 1
    49   27   28 1
    50   28   29 2
    51   28   30 1
    52   28   31 1
@<TRIPOS>SUBSTRUCTURE
     1 FMN         1 GROUP 0 A     ****
@<TRIPOS>MOLECULE
[5-(7,8-dimethyl-2,4-dioxo-benzo[g]pteridin-10-yl)-2,3,4-trihydroxy-pentyl] phosphate
   50    52     1     0     0
SMALL
USER_CHARGES

@<TRIPOS>ATOM
      1 N1          1.2277   -6.1042    3.2212 N.2       1 FMN        -0.6988
      2 C2          2.0186   -7.2293    3.3119 C.ar      1 FMN         0.8536
      3 O2          1.7830   -8.1102    4.1421 O.2       1 FMN        -0.6019
      4 N3          3.1050   -7.3794    2.4494 N.pl3     1 FMN        -0.6223
      5 C4          3.4932   -6.4908    1.4752 C.ar      1 FMN         0.6334
      6 O4          4.4350   -6.5937    0.7081 O.2       1 FMN        -0.6125
      7 C4A         2.6001   -5.2945    1.4253 C.ar      1 FMN         0.2211
      8 N5          2.8818   -4.3956    0.5389 N.2       1 FMN        -0.4286
      9 C5A         2.0834   -3.2454    0.4374 C.ar      1 FMN         0.0170
     10 C6          2.4298   -2.2996   -0.5398 C.ar      1 FMN        -0.0553
     11 C7          1.6851   -1.1351   -0.6992 C.ar      1 FMN        -0.1211
     12 C7M         2.0850   -0.1527   -1.7495 C.3       1 FMN        -0.0435
     13 C8          0.5864   -0.9067    0.1183 C.ar      1 FMN        -0.0173
     14 C8M        -0.2342    0.3332   -0.0271 C.3       1 FMN        -0.0630
     15 C9          0.2330   -1.8421    1.0943 C.ar      1 FMN        -0.1390
     16 C9A         0.9704   -3.0274    1.2749 C.ar      1 FMN         0.1887
     17 N10         0.6547   -4.0033    2.2457 N.pl3     1 FMN        -0.5294
     18 C10         1.4328   -5.1491    2.3626 C.ar      1 FMN         0.6151
     19 C1'        -0.5012   -3.7679    3.1095 C.3       1 FMN         0.1741
     20 C2'        -1.7519   -4.3580    2.4592 C.3       1 FMN         0.1411
     21 O2'        -2.9043   -3.7429    3.0366 O.3       1 FMN        -0.6334
     22 C3'        -1.8403   -5.8851    2.6514 C.3       1 FMN         0.1067
     23 O3'        -0.9962   -6.5374    1.7038 O.3       1 FMN        -0.6301
     24 C4'        -3.2723   -6.4304    2.4933 C.3       1 FMN         0.0813
     25 O4'        -4.1175   -5.8166    3.4684 O.3       1 FMN        -0.6796
     26 C5'        -3.3417   -7.9460    2.6758 C.3       1 FMN         0.1813
     27 O5'        -4.6930   -8.3657    2.5145 O.3       1 FMN        -0.5642
     28 P          -5.0440   -9.9706    2.6636 P.3       1 FMN         1.3127
     29 O1P        -4.2230  -10.6514    1.5725 O.co2     1 FMN        -0.9243
     30 O2P        -6.5509  -10.0262    2.4311 O.co2     1 FMN        -0.9243
     31 O3P        -4.6225  -10.3307    4.0852 O.co2     1 FMN        -0.9243
     32 HN3         3.6607   -8.2239    2.5509 H         1 FMN         0.3334
     33 H6          3.2920   -2.4807   -1.1791 H         1 FMN         0.1447
     34 HM71        1.5822   -0.3820   -2.6964 H         1 FMN         0.0392
     35 HM72        1.8243    0.8717   -1.4550 H         1 FMN         0.0392
     36 HM73        3.1694   -0.1698   -1.9170 H         1 FMN         0.0392
     37 HM81       -1.0476    0.1680   -0.7429 H         1 FMN         0.0535
     38 HM82       -0.6692    0.6350    0.9334 H         1 FMN         0.0535
     39 HM83        0.3769    1.1733   -0.3794 H         1 FMN         0.0535
     40 H9         -0.6349   -1.6256    1.7128 H         1 FMN         0.1971
     41 H1'1       -0.5966   -2.6906    3.2480 H         1 FMN         0.1123
     42 H1'2       -0.2877   -4.2309    4.0717 H         1 FMN         0.1123
     43 H2'        -1.7471   -4.1167    1.3894 H         1 FMN         0.0570
     44 HO2'       -2.8736   -3.9409    3.9846 H         1 FMN         0.4322
     45 H3'        -1.4895   -6.1524    3.6564 H         1 FMN         0.0570
     46 HO3'       -1.3184   -6.2804    0.8265 H         1 FMN         0.4323
     47 H4'        -3.6728   -6.1627    1.5087 H         1 FMN         0.0270
     48 HO4'       -5.0026   -6.1864    3.3333 H         1 FMN         0.4672
     49 H5'1       -2.7403   -8.4684    1.9249 H         1 FMN         0.0181
     50 H5'2       -3.0135   -8.2366    3.6785 H         1 FMN         0.0181
@<TRIPOS>BOND
     1    1    2 ar
     2    1   18 ar
     3    2    3 2
     4    2    4 ar
     5    4    5 ar
     6    4   32 1
     7    5    6 2
     8    5    7 ar
     9    7    8 ar
    10    7   18 ar
    11    8    9 ar
    12    9   10 ar
    13    9   16 ar
    14   10   11 ar
    15   10   33 1
    16   11   12 1
    17   11   13 ar
    18   12   34 1
    19   12   35 1
    20   12   36 1
    21   13   14 1
    22   13   15 ar
    23   14   37 1
    24   14   38 1
    25   14   39 1
    26   15   16 ar
    27   15   40 1
    28   16   17 ar
    29   17   18 ar
    30   17   19 1
    31   19   20 1
    32   19   41 1
    33   19   42 1
    34   20   21 1
    35   20   22 1
    36   20   43 1
    37   21   44 1
    38   22   23 1
    39   22   24 1
    40   22   45 1
    41   23   46 1
    42   24   25 1
    43   24   26 1
    44   24   47 1
    45   25   48 1
    46   26   27 1
    47   26   49 1
    48   26   50 1
    49   27   28 1
    50   28   29 2
    51   28   30 1
    52   28   31 1
@<TRIPOS>SUBSTRUCTURE
     1 FMN         1 GROUP 0 A     ****
@<TRIPOS>MOLECULE
[5-(7,8-dimethyl-2,4-dioxo-benzo[g]pteridin-10-yl)-2,3,4-trihydroxy-pentyl] phosphate
   50    52     1     0     0
SMALL
USER_CHARGES

@<TRIPOS>ATOM
      1 N1          1.2277   -6.1042    3.2212 N.2       1 FMN        -0.6988
      2 C2          2.0186   -7.2293    3.3119 C.ar      1 FMN         0.8536
      3 O2          1.7830   -8.1102    4.1421 O.2       1 FMN        -0.6019
      4 N3          3.1050   -7.3794    2.4494 N.pl3     1 FMN        -0.6223
      5 C4          3.4932   -6.4908    1.4752 C.ar      1 FMN         0.6334
      6 O4          4.4350   -6.5937    0.7081 O.2       1 FMN        -0.6125
      7 C4A         2.6001   -5.2945    1.4253 C.ar      1 FMN         0.2211
      8 N5          2.8818   -4.3956    0.5389 N.2       1 FMN        -0.4286
      9 C5A         2.0834   -3.2454    0.4374 C.ar      1 FMN         0.0170
     10 C6          2.4298   -2.2996   -0.5398 C.ar      1 FMN        -0.0553
     11 C7          1.6851   -1.1351   -0.6992 C.ar      1 FMN        -0.1211
     12 C7M         2.0850   -0.1527   -1.7495 C.3       1 FMN        -0.0435
     13 C8          0.5864   -0.9067    0.1183 C.ar      1 FMN        -0.0173
     14 C8M        -0.2342    0.3332   -0.0271 C.3       1 FMN        -0.0630
     15 C9          0.2330   -1.8421    1.0943 C.ar      1 FMN        -0.1390
     16 C9A         0.9704   -3.0274    1.2749 C.ar      1 FMN         0.1887
     17 N10         0.6547   -4.0033    2.2457 N.pl3     1 FMN        -0.5294
     18 C10         1.4328   -5.1491    2.3626 C.ar      1 FMN         0.6151
     19 C1'        -0.5012   -3.7679    3.1095 C.3       1 FMN         0.1741
     20 C2'        -1.7519   -4.3580    2.4592 C.3       1 FMN         0.1411
     21 O2'        -1.7067   -4.0980    1.0556 O.3       1 FMN        -0.6334
     22 C3'        -3.0471   -3.7617    3.0455 C.3       1 FMN         0.1067
     23 O3'        -3.1081   -4.0307    4.4455 O.3       1 FMN        -0.6301
     24 C4'        -4.3210   -4.3173    2.3810 C.3       1 FMN         0.0813
     25 O4'        -4.1556   -5.7177    2.1493 O.3       1 FMN        -0.6796
     26 C5'        -4.6259   -3.6372    1.0471 C.3       1 FMN         0.1813
     27 O5'        -4.8100   -2.2434    1.2748 O.3       1 FMN        -0.5642
     28 P          -5.1536   -1.2719   -0.0133 P.3       1 FMN         1.3127
     29 O1P        -3.9567   -1.4260   -0.9471 O.co2     1 FMN        -0.9243
     30 O2P        -5.2773    0.1143    0.6121 O.co2     1 FMN        -0.9243
     31 O3P        -6.4634   -1.8180   -0.5741 O.co2     1 FMN        -0.9243
     32 HN3         3.6607   -8.2239    2.5509 H         1 FMN         0.3334
     33 H6          3.2920   -2.4807   -1.1791 H         1 FMN         0.1447
     34 HM71        1.5822   -0.3820   -2.6964 H         1 FMN         0.0392
     35 HM72        1.8243    0.8717   -1.4550 H         1 FMN         0.0392
     36 HM73        3.1694   -0.1698   -1.9170 H         1 FMN         0.0392
     37 HM81       -1.0476    0.1680   -0.7429 H         1 FMN         0.0535
     38 HM82       -0.6692    0.6350    0.9334 H         1 FMN         0.0535
     39 HM83        0.3769    1.1733   -0.3794 H         1 FMN         0.0535
     40 H9         -0.6349   -1.6256    1.7128 H         1 FMN         0.1971
     41 H1'1       -0.5966   -2.6906    3.2480 H         1 FMN         0.1123
     42 H1'2       -0.2877   -4.2309    4.0717 H         1 FMN         0.1123
     43 H2'        -1.7472   -5.4461    2.5961 H         1 FMN         0.0570
     44 HO2'       -0.9027   -4.5253    0.7244 H         1 FMN         0.4322
     45 H3'        -3.0471   -2.6725    2.9106 H         1 FMN         0.0570
     46 HO3'       -3.0979   -4.9952    4.5404 H         1 FMN         0.4323
     47 H4'        -5.1791   -4.2034    3.0534 H         1 FMN         0.0270
     48 HO4'       -4.9751   -6.0235    1.7330 H         1 FMN         0.4672
     49 H5'1       -3.7979   -3.7512    0.3402 H         1 FMN         0.0181
     50 H5'2       -5.5454   -4.0331    0.6051 H         1 FMN         0.0181
@<TRIPOS>BOND
     1    1    2 ar
     2    1   18 ar
     3    2    3 2
     4    2    4 ar
     5    4    5 ar
     6    4   32 1
     7    5    6 2
     8    5    7 ar
     9    7    8 ar
    10    7   18 ar
    11    8    9 ar
    12    9   10 ar
    13    9   16 ar
    14   10   11 ar
    15   10   33 1
    16   11   12 1
    17   11   13 ar
    18   12   34 1
    19   12   35 1
    20   12   36 1
    21   13   14 1
    22   13   15 ar
    23   14   37 1
    24   14   38 1
    25   14   39 1
    26   15   16 ar
    27   15   40 1
    28   16   17 ar
    29   17   18 ar
    30   17   19 1
    31   19   20 1
    32   19   41 1
    33   19   42 1
    34   20   21 1
    35   20   22 1
    36   20   43 1
    37   21   44 1
    38   22   23 1
    39   22   24 1
    40   22   45 1
    41   23   46 1
    42   24   25 1
    43   24   26 1
    44   24   47 1
    45   25   48 1
    46   26   27 1
    47   26   49 1
    48   26   50 1
    49   27   28 1
    50   28   29 2
    51   28   30 1
    52   28   31 1
@<TRIPOS>SUBSTRUCTURE
     1 FMN         1 GROUP 0 A     ****
@<TRIPOS>MOLECULE
[5-(7,8-dimethyl-2,4-dioxo-benzo[g]pteridin-10-yl)-2,3,4-trihydroxy-pentyl] phosphate
   50    52     1     0     0
SMALL
USER_CHARGES

@<TRIPOS>ATOM
      1 N1          1.2277   -6.1042    3.2212 N.2       1 FMN        -0.6988
      2 C2          2.0186   -7.2293    3.3119 C.ar      1 FMN         0.8536
      3 O2          1.7830   -8.1102    4.1421 O.2       1 FMN        -0.6019
      4 N3          3.1050   -7.3794    2.4494 N.pl3     1 FMN        -0.6223
      5 C4          3.4932   -6.4908    1.4752 C.ar      1 FMN         0.6334
      6 O4          4.4350   -6.5937    0.7081 O.2       1 FMN        -0.6125
      7 C4A         2.6001   -5.2945    1.4253 C.ar      1 FMN         0.2211
      8 N5          2.8818   -4.3956    0.5389 N.2       1 FMN        -0.4286
      9 C5A         2.0834   -3.2454    0.4374 C.ar      1 FMN         0.0170
     10 C6          2.4298   -2.2996   -0.5398 C.ar      1 FMN        -0.0553
     11 C7          1.6851   -1.1351   -0.6992 C.ar      1 FMN        -0.1211
     12 C7M         2.0850   -0.1527   -1.7495 C.3       1 FMN        -0.0435
     13 C8          0.5864   -0.9067    0.1183 C.ar      1 FMN        -0.0173
     14 C8M        -0.2342    0.3332   -0.0271 C.3       1 FMN        -0.0630
     15 C9          0.2330   -1.8421    1.0943 C.ar      1 FMN        -0.1390
     16 C9A         0.9704   -3.0274    1.2749 C.ar      1 FMN         0.1887
     17 N10         0.6547   -4.0033    2.2457 N.pl3     1 FMN        -0.5294
     18 C10         1.4328   -5.1491    2.3626 C.ar      1 FMN         0.6151
     19 C1'        -0.5012   -3.7679    3.1095 C.3       1 FMN         0.1741
     20 C2'        -1.7519   -4.3580    2.4592 C.3       1 FMN         0.1411
     21 O2'        -1.9553   -3.7249    1.1953 O.3       1 FMN        -0.6334
     22 C3'        -3.0070   -4.1638    3.3332 C.3       1 FMN         0.1067
     23 O3'        -4.0133   -5.0964    2.9413 O.3       1 FMN        -0.6301
     24 C4'        -3.5909   -2.7412    3.2417 C.3       1 FMN         0.0813
     25 O4'        -4.4198   -2.5011    4.3807 O.3       1 FMN        -0.6796
     26 C5'        -4.4280   -2.5355    1.9800 C.3       1 FMN         0.1813
     27 O5'        -4.5361   -1.1386    1.7244 O.3       1 FMN        -0.5642
     28 P          -4.6885   -0.6317    0.1621 P.3       1 FMN         1.3127
     29 O1P        -3.4221   -1.1243   -0.5320 O.co2     1 FMN        -0.9243
     30 O2P        -4.7749    0.8863    0.2896 O.co2     1 FMN        -0.9243
     31 O3P        -5.9739   -1.2860   -0.3358 O.co2     1 FMN        -0.9243
     32 HN3         3.6607   -8.2239    2.5509 H         1 FMN         0.3334
     33 H6          3.2920   -2.4807   -1.1791 H         1 FMN         0.1447
     34 HM71        1.5822   -0.3820   -2.6964 H         1 FMN         0.0392
     35 HM72        1.8243    0.8717   -1.4550 H         1 FMN         0.0392
     36 HM73        3.1694   -0.1698   -1.9170 H         1 FMN         0.0392
     37 HM81       -1.0476    0.1680   -0.7429 H         1 FMN         0.0535
     38 HM82       -0.6692    0.6350    0.9334 H         1 FMN         0.0535
     39 HM83        0.3769    1.1733   -0.3794 H         1 FMN         0.0535
     40 H9         -0.6349   -1.6256    1.7128 H         1 FMN         0.1971
     41 H1'1       -0.5966   -2.6906    3.2480 H         1 FMN         0.1123
     42 H1'2       -0.2877   -4.2309    4.0717 H         1 FMN         0.1123
     43 H2'        -1.5888   -5.4264    2.2735 H         1 FMN         0.0570
     44 HO2'       -1.1640   -3.9085    0.6672 H         1 FMN         0.4322
     45 H3'        -2.7589   -4.3567    4.3848 H         1 FMN         0.0570
     46 HO3'       -4.7764   -4.9347    3.5166 H         1 FMN         0.4323
     47 H4'        -2.7851   -1.9987    3.2702 H         1 FMN         0.0270
     48 HO4'       -4.7638   -1.6009    4.2824 H         1 FMN         0.4672
     49 H5'1       -3.9567   -2.9970    1.1063 H         1 FMN         0.0181
     50 H5'2       -5.4382   -2.9361    2.1089 H         1 FMN         0.0181
@<TRIPOS>BOND
     1    1    2 ar
     2    1   18 ar
     3    2    3 2
     4    2    4 ar
     5    4    5 ar
     6    4   32 1
     7    5    6 2
     8    5    7 ar
     9    7    8 ar
    10    7   18 ar
    11    8    9 ar
    12    9   10 ar
    13    9   16 ar
    14   10   11 ar
    15   10   33 1
    16   11   12 1
    17   11   13 ar
    18   12   34 1
    19   12   35 1
    20   12   36 1
    21   13   14 1
    22   13   15 ar
    23   14   37 1
    24   14   38 1
    25   14   39 1
    26   15   16 ar
    27   15   40 1
    28   16   17 ar
    29   17   18 ar
    30   17   19 1
    31   19   20 1
    32   19   41 1
    33   19   42 1
    34   20   21 1
    35   20   22 1
    36   20   43 1
    37   21   44 1
    38   22   23 1
    39   22   24 1
    40   22   45 1
    41   23   46 1
    42   24   25 1
    43   24   26 1
    44   24   47 1
    45   25   48 1
    46   26   27 1
    47   26   49 1
    48   26   50 1
    49   27   28 1
    50   28   29 2
    51   28   30 1
    52   28   31 1
@<TRIPOS>SUBSTRUCTURE
     1 FMN         1 GROUP 0 A     ****
@<TRIPOS>MOLECULE
[5-(7,8-dimethyl-2,4-dioxo-benzo[g]pteridin-10-yl)-2,3,4-trihydroxy-pentyl] phosphate
   50    52     1     0     0
SMALL
USER_CHARGES

@<TRIPOS>ATOM
      1 N1          1.2277   -6.1042    3.2212 N.2       1 FMN        -0.6988
      2 C2          2.0186   -7.2293    3.3119 C.ar      1 FMN         0.8536
      3 O2          1.7830   -8.1102    4.1421 O.2       1 FMN        -0.6019
      4 N3          3.1050   -7.3794    2.4494 N.pl3     1 FMN        -0.6223
      5 C4          3.4932   -6.4908    1.4752 C.ar      1 FMN         0.6334
      6 O4          4.4350   -6.5937    0.7081 O.2       1 FMN        -0.6125
      7 C4A         2.6001   -5.2945    1.4253 C.ar      1 FMN         0.2211
      8 N5          2.8818   -4.3956    0.5389 N.2       1 FMN        -0.4286
      9 C5A         2.0834   -3.2454    0.4374 C.ar      1 FMN         0.0170
     10 C6          2.4298   -2.2996   -0.5398 C.ar      1 FMN        -0.0553
     11 C7          1.6851   -1.1351   -0.6992 C.ar      1 FMN        -0.1211
     12 C7M         2.0850   -0.1527   -1.7495 C.3       1 FMN        -0.0435
     13 C8          0.5864   -0.9067    0.1183 C.ar      1 FMN        -0.0173
     14 C8M        -0.2342    0.3332   -0.0271 C.3       1 FMN        -0.0630
     15 C9          0.2330   -1.8421    1.0943 C.ar      1 FMN        -0.1390
     16 C9A         0.9704   -3.0274    1.2749 C.ar      1 FMN         0.1887
     17 N10         0.6547   -4.0033    2.2457 N.pl3     1 FMN        -0.5294
     18 C10         1.4328   -5.1491    2.3626 C.ar      1 FMN         0.6151
     19 C1'        -0.5012   -3.7679    3.1095 C.3       1 FMN         0.1741
     20 C2'        -1.7519   -4.3580    2.4592 C.3       1 FMN         0.1411
     21 O2'        -2.2248   -3.4496    1.4638 O.3       1 FMN        -0.6334
     22 C3'        -2.8727   -4.6164    3.4857 C.3       1 FMN         0.1067
     23 O3'        -4.0117   -5.1654    2.8243 O.3       1 FMN        -0.6301
     24 C4'        -3.3058   -3.3439    4.2383 C.3       1 FMN         0.0813
     25 O4'        -3.3398   -2.2471    3.3229 O.3       1 FMN        -0.6796
     26 C5'        -2.3556   -2.9922    5.3822 C.3       1 FMN         0.1813
     27 O5'        -3.0330   -2.1313    6.2924 O.3       1 FMN        -0.5642
     28 P          -2.2228   -1.5999    7.6274 P.3       1 FMN         1.3127
     29 O1P        -1.8548   -2.8691    8.3902 O.co2     1 FMN        -0.9243
     30 O2P        -3.2500   -0.7248    8.3395 O.co2     1 FMN        -0.9243
     31 O3P        -1.0274   -0.8285    7.0758 O.co2     1 FMN        -0.9243
     32 HN3         3.6607   -8.2239    2.5509 H         1 FMN         0.3334
     33 H6          3.2920   -2.4807   -1.1791 H         1 FMN         0.1447
     34 HM71        1.5822   -0.3820   -2.6964 H         1 FMN         0.0392
     35 HM72        1.8243    0.8717   -1.4550 H         1 FMN         0.0392
     36 HM73        3.1694   -0.1698   -1.9170 H         1 FMN         0.0392
     37 HM81       -1.0476    0.1680   -0.7429 H         1 FMN         0.0535
     38 HM82       -0.6692    0.6350    0.9334 H         1 FMN         0.0535
     39 HM83        0.3769    1.1733   -0.3794 H         1 FMN         0.0535
     40 H9         -0.6349   -1.6256    1.7128 H         1 FMN         0.1971
     41 H1'1       -0.5966   -2.6906    3.2480 H         1 FMN         0.1123
     42 H1'2       -0.2877   -4.2309    4.0717 H         1 FMN         0.1123
     43 H2'        -1.4853   -5.2946    1.9549 H         1 FMN         0.0570
     44 HO2'       -3.0142   -3.8561    1.0759 H         1 FMN         0.4322
     45 H3'        -2.5308   -5.3459    4.2310 H         1 FMN         0.0570
     46 HO3'       -3.7190   -5.9944    2.4163 H         1 FMN         0.4323
     47 H4'        -4.3218   -3.4640    4.6316 H         1 FMN         0.0270
     48 HO4'       -3.9822   -2.4841    2.6377 H         1 FMN         0.4672
     49 H5'1       -2.0476   -3.8845    5.9365 H         1 FMN         0.0181
     50 H5'2       -1.4714   -2.4652    5.0108 H         1 FMN         0.0181
@<TRIPOS>BOND
     1    1    2 ar
     2    1   18 ar
     3    2    3 2
     4    2    4 ar
     5    4    5 ar
     6    4   32 1
     7    5    6 2
     8    5    7 ar
     9    7    8 ar
    10    7   18 ar
    11    8    9 ar
    12    9   10 ar
    13    9   16 ar
    14   10   11 ar
    15   10   33 1
    16   11   12 1
    17   11   13 ar
    18   12   34 1
    19   12   35 1
    20   12   36 1
    21   13   14 1
    22   13   15 ar
    23   14   37 1
    24   14   38 1
    25   14   39 1
    26   15   16 ar
    27   15   40 1
    28   16   17 ar
    29   17   18 ar
    30   17   19 1
    31   19   20 1
    32   19   41 1
    33   19   42 1
    34   20   21 1
    35   20   22 1
    36   20   43 1
    37   21   44 1
    38   22   23 1
    39   22   24 1
    40   22   45 1
    41   23   46 1
    42   24   25 1
    43   24   26 1
    44   24   47 1
    45   25   48 1
    46   26   27 1
    47   26   49 1
    48   26   50 1
    49   27   28 1
    50   28   29 2
    51   28   30 1
    52   28   31 1
@<TRIPOS>SUBSTRUCTURE
     1 FMN         1 GROUP 0 A     ****
@<TRIPOS>MOLECULE
[5-(7,8-dimethyl-2,4-dioxo-benzo[g]pteridin-10-yl)-2,3,4-trihydroxy-pentyl] phosphate
   50    52     1     0     0
SMALL
USER_CHARGES

@<TRIPOS>ATOM
      1 N1          1.2277   -6.1042    3.2212 N.2       1 FMN        -0.6988
      2 C2          2.0186   -7.2293    3.3119 C.ar      1 FMN         0.8536
      3 O2          1.7830   -8.1102    4.1421 O.2       1 FMN        -0.6019
      4 N3          3.1050   -7.3794    2.4494 N.pl3     1 FMN        -0.6223
      5 C4          3.4932   -6.4908    1.4752 C.ar      1 FMN         0.6334
      6 O4          4.4350   -6.5937    0.7081 O.2       1 FMN        -0.6125
      7 C4A         2.6001   -5.2945    1.4253 C.ar      1 FMN         0.2211
      8 N5          2.8818   -4.3956    0.5389 N.2       1 FMN        -0.4286
      9 C5A         2.0834   -3.2454    0.4374 C.ar      1 FMN         0.0170
     10 C6          2.4298   -2.2996   -0.5398 C.ar      1 FMN        -0.0553
     11 C7          1.6851   -1.1351   -0.6992 C.ar      1 FMN        -0.1211
     12 C7M         2.0850   -0.1527   -1.7495 C.3       1 FMN        -0.0435
     13 C8          0.5864   -0.9067    0.1183 C.ar      1 FMN        -0.0173
     14 C8M        -0.2342    0.3332   -0.0271 C.3       1 FMN        -0.0630
     15 C9          0.2330   -1.8421    1.0943 C.ar      1 FMN        -0.1390
     16 C9A         0.9704   -3.0274    1.2749 C.ar      1 FMN         0.1887
     17 N10         0.6547   -4.0033    2.2457 N.pl3     1 FMN        -0.5294
     18 C10         1.4328   -5.1491    2.3626 C.ar      1 FMN         0.6151
     19 C1'        -0.5012   -3.7679    3.1095 C.3       1 FMN         0.1741
     20 C2'        -0.0563   -3.0138    4.3619 C.3       1 FMN         0.1411
     21 O2'         1.2000   -3.5387    4.7929 O.3       1 FMN        -0.6334
     22 C3'        -1.0797   -3.1379    5.5082 C.3       1 FMN         0.1067
     23 O3'        -1.5956   -4.4676    5.5488 O.3       1 FMN        -0.6301
     24 C4'        -2.2587   -2.1558    5.3725 C.3       1 FMN         0.0813
     25 O4'        -2.8852   -1.9971    6.6470 O.3       1 FMN        -0.6796
     26 C5'        -3.3079   -2.6403    4.3728 C.3       1 FMN         0.1813
     27 O5'        -4.3573   -1.6796    4.3079 O.3       1 FMN        -0.5642
     28 P          -5.6265   -1.9645    3.2935 P.3       1 FMN         1.3127
     29 O1P        -5.0021   -2.0505    1.9039 O.co2     1 FMN        -0.9243
     30 O2P        -6.5219   -0.7459    3.4963 O.co2     1 FMN        -0.9243
     31 O3P        -6.2365   -3.2717    3.7910 O.co2     1 FMN        -0.9243
     32 HN3         3.6607   -8.2239    2.5509 H         1 FMN         0.3334
     33 H6          3.2920   -2.4807   -1.1791 H         1 FMN         0.1447
     34 HM71        1.5822   -0.3820   -2.6964 H         1 FMN         0.0392
     35 HM72        1.8243    0.8717   -1.4550 H         1 FMN         0.0392
     36 HM73        3.1694   -0.1698   -1.9170 H         1 FMN         0.0392
     37 HM81       -1.0476    0.1680   -0.7429 H         1 FMN         0.0535
     38 HM82       -0.6692    0.6350    0.9334 H         1 FMN         0.0535
     39 HM83        0.3769    1.1733   -0.3794 H         1 FMN         0.0535
     40 H9         -0.6349   -1.6256    1.7128 H         1 FMN         0.1971
     41 H1'1       -0.9287   -4.7387    3.3617 H         1 FMN         0.1123
     42 H1'2       -1.2289   -3.2002    2.5315 H         1 FMN         0.1123
     43 H2'         0.0940   -1.9572    4.1093 H         1 FMN         0.0570
     44 HO2'        1.4481   -3.0384    5.5846 H         1 FMN         0.4322
     45 H3'        -0.5862   -2.9377    6.4680 H         1 FMN         0.0570
     46 HO3'       -0.8368   -5.0520    5.6983 H         1 FMN         0.4323
     47 H4'        -1.8950   -1.1672    5.0695 H         1 FMN         0.0270
     48 HO4'       -3.6163   -1.3754    6.5157 H         1 FMN         0.4672
     49 H5'1       -2.8875   -2.7405    3.3670 H         1 FMN         0.0181
     50 H5'2       -3.7405   -3.5946    4.6885 H         1 FMN         0.0181
@<TRIPOS>BOND
     1    1    2 ar
     2    1   18 ar
     3    2    3 2
     4    2    4 ar
     5    4    5 ar
     6    4   32 1
     7    5    6 2
     8    5    7 ar
     9    7    8 ar
    10    7   18 ar
    11    8    9 ar
    12    9   10 ar
    13    9   16 ar
    14   10   11 ar
    15   10   33 1
    16   11   12 1
    17   11   13 ar
    18   12   34 1
    19   12   35 1
    20   12   36 1
    21   13   14 1
    22   13   15 ar
    23   14   37 1
    24   14   38 1
    25   14   39 1
    26   15   16 ar
    27   15   40 1
    28   16   17 ar
    29   17   18 ar
    30   17   19 1
    31   19   20 1
    32   19   41 1
    33   19   42 1
    34   20   21 1
    35   20   22 1
    36   20   43 1
    37   21   44 1
    38   22   23 1
    39   22   24 1
    40   22   45 1
    41   23   46 1
    42   24   25 1
    43   24   26 1
    44   24   47 1
    45   25   48 1
    46   26   27 1
    47   26   49 1
    48   26   50 1
    49   27   28 1
    50   28   29 2
    51   28   30 1
    52   28   31 1
@<TRIPOS>SUBSTRUCTURE
     1 FMN         1 GROUP 0 A     ****
@<TRIPOS>MOLECULE
[5-(7,8-dimethyl-2,4-dioxo-benzo[g]pteridin-10-yl)-2,3,4-trihydroxy-pentyl] phosphate
   50    52     1     0     0
SMALL
USER_CHARGES

@<TRIPOS>ATOM
      1 N1          1.2277   -6.1042    3.2212 N.2       1 FMN        -0.6988
      2 C2          2.0186   -7.2293    3.3119 C.ar      1 FMN         0.8536
      3 O2          1.7830   -8.1102    4.1421 O.2       1 FMN        -0.6019
      4 N3          3.1050   -7.3794    2.4494 N.pl3     1 FMN        -0.6223
      5 C4          3.4932   -6.4908    1.4752 C.ar      1 FMN         0.6334
      6 O4          4.4350   -6.5937    0.7081 O.2       1 FMN        -0.6125
      7 C4A         2.6001   -5.2945    1.4253 C.ar      1 FMN         0.2211
      8 N5          2.8818   -4.3956    0.5389 N.2       1 FMN        -0.4286
      9 C5A         2.0834   -3.2454    0.4374 C.ar      1 FMN         0.0170
     10 C6          2.4298   -2.2996   -0.5398 C.ar      1 FMN        -0.0553
     11 C7          1.6851   -1.1351   -0.6992 C.ar      1 FMN        -0.1211
     12 C7M         2.0850   -0.1527   -1.7495 C.3       1 FMN        -0.0435
     13 C8          0.5864   -0.9067    0.1183 C.ar      1 FMN        -0.0173
     14 C8M        -0.2342    0.3332   -0.0271 C.3       1 FMN        -0.0630
     15 C9          0.2330   -1.8421    1.0943 C.ar      1 FMN        -0.1390
     16 C9A         0.9704   -3.0274    1.2749 C.ar      1 FMN         0.1887
     17 N10         0.6547   -4.0033    2.2457 N.pl3     1 FMN        -0.5294
     18 C10         1.4328   -5.1491    2.3626 C.ar      1 FMN         0.6151
     19 C1'        -0.5012   -3.7679    3.1095 C.3       1 FMN         0.1741
     20 C2'        -1.7519   -4.3580    2.4592 C.3       1 FMN         0.1411
     21 O2'        -2.2248   -3.4496    1.4638 O.3       1 FMN        -0.6334
     22 C3'        -2.8727   -4.6164    3.4857 C.3       1 FMN         0.1067
     23 O3'        -4.0117   -5.1654    2.8243 O.3       1 FMN        -0.6301
     24 C4'        -3.3058   -3.3439    4.2383 C.3       1 FMN         0.0813
     25 O4'        -2.1820   -2.8106    4.9417 O.3       1 FMN        -0.6796
     26 C5'        -4.4242   -3.6143    5.2438 C.3       1 FMN         0.1813
     27 O5'        -5.6639   -3.6737    4.5454 O.3       1 FMN        -0.5642
     28 P          -6.8621   -4.6361    5.1449 P.3       1 FMN         1.3127
     29 O1P        -6.2701   -6.0424    5.1411 O.co2     1 FMN        -0.9243
     30 O2P        -8.0030   -4.4413    4.1507 O.co2     1 FMN        -0.9243
     31 O3P        -7.1499   -4.0784    6.5357 O.co2     1 FMN        -0.9243
     32 HN3         3.6607   -8.2239    2.5509 H         1 FMN         0.3334
     33 H6          3.2920   -2.4807   -1.1791 H         1 FMN         0.1447
     34 HM71        1.5822   -0.3820   -2.6964 H         1 FMN         0.0392
     35 HM72        1.8243    0.8717   -1.4550 H         1 FMN         0.0392
     36 HM73        3.1694   -0.1698   -1.9170 H         1 FMN         0.0392
     37 HM81       -1.0476    0.1680   -0.7429 H         1 FMN         0.0535
     38 HM82       -0.6692    0.6350    0.9334 H         1 FMN         0.0535
     39 HM83        0.3769    1.1733   -0.3794 H         1 FMN         0.0535
     40 H9         -0.6349   -1.6256    1.7128 H         1 FMN         0.1971
     41 H1'1       -0.5966   -2.6906    3.2480 H         1 FMN         0.1123
     42 H1'2       -0.2877   -4.2309    4.0717 H         1 FMN         0.1123
     43 H2'        -1.4853   -5.2946    1.9549 H         1 FMN         0.0570
     44 HO2'       -2.4249   -2.6205    1.9234 H         1 FMN         0.4322
     45 H3'        -2.5308   -5.3459    4.2310 H         1 FMN         0.0570
     46 HO3'       -4.2898   -4.5097    2.1668 H         1 FMN         0.4323
     47 H4'        -3.6319   -2.5761    3.5273 H         1 FMN         0.0270
     48 HO4'       -1.8938   -3.5004    5.5577 H         1 FMN         0.4672
     49 H5'1       -4.2835   -4.5736    5.7519 H         1 FMN         0.0181
     50 H5'2       -4.4899   -2.8110    5.9841 H         1 FMN         0.0181
@<TRIPOS>BOND
     1    1    2 ar
     2    1   18 ar
     3    2    3 2
     4    2    4 ar
     5    4    5 ar
     6    4   32 1
     7    5    6 2
     8    5    7 ar
     9    7    8 ar
    10    7   18 ar
    11    8    9 ar
    12    9   10 ar
    13    9   16 ar
    14   10   11 ar
    15   10   33 1
    16   11   12 1
    17   11   13 ar
    18   12   34 1
    19   12   35 1
    20   12   36 1
    21   13   14 1
    22   13   15 ar
    23   14   37 1
    24   14   38 1
    25   14   39 1
    26   15   16 ar
    27   15   40 1
    28   16   17 ar
    29   17   18 ar
    30   17   19 1
    31   19   20 1
    32   19   41 1
    33   19   42 1
    34   20   21 1
    35   20   22 1
    36   20   43 1
    37   21   44 1
    38   22   23 1
    39   22   24 1
    40   22   45 1
    41   23   46 1
    42   24   25 1
    43   24   26 1
    44   24   47 1
    45   25   48 1
    46   26   27 1
    47   26   49 1
    48   26   50 1
    49   27   28 1
    50   28   29 2
    51   28   30 1
    52   28   31 1
@<TRIPOS>SUBSTRUCTURE
     1 FMN         1 GROUP 0 A     ****
@<TRIPOS>MOLECULE
[5-(7,8-dimethyl-2,4-dioxo-benzo[g]pteridin-10-yl)-2,3,4-trihydroxy-pentyl] phosphate
   50    52     1     0     0
SMALL
USER_CHARGES

@<TRIPOS>ATOM
      1 N1          1.2277   -6.1042    3.2212 N.2       1 FMN        -0.6988
      2 C2          2.0186   -7.2293    3.3119 C.ar      1 FMN         0.8536
      3 O2          1.7830   -8.1102    4.1421 O.2       1 FMN        -0.6019
      4 N3          3.1050   -7.3794    2.4494 N.pl3     1 FMN        -0.6223
      5 C4          3.4932   -6.4908    1.4752 C.ar      1 FMN         0.6334
      6 O4          4.4350   -6.5937    0.7081 O.2       1 FMN        -0.6125
      7 C4A         2.6001   -5.2945    1.4253 C.ar      1 FMN         0.2211
      8 N5          2.8818   -4.3956    0.5389 N.2       1 FMN        -0.4286
      9 C5A         2.0834   -3.2454    0.4374 C.ar      1 FMN         0.0170
     10 C6          2.4298   -2.2996   -0.5398 C.ar      1 FMN        -0.0553
     11 C7          1.6851   -1.1351   -0.6992 C.ar      1 FMN        -0.1211
     12 C7M         2.0850   -0.1527   -1.7495 C.3       1 FMN        -0.0435
     13 C8          0.5864   -0.9067    0.1183 C.ar      1 FMN        -0.0173
     14 C8M        -0.2342    0.3332   -0.0271 C.3       1 FMN        -0.0630
     15 C9          0.2330   -1.8421    1.0943 C.ar      1 FMN        -0.1390
     16 C9A         0.9704   -3.0274    1.2749 C.ar      1 FMN         0.1887
     17 N10         0.6547   -4.0033    2.2457 N.pl3     1 FMN        -0.5294
     18 C10         1.4328   -5.1491    2.3626 C.ar      1 FMN         0.6151
     19 C1'        -0.5012   -3.7679    3.1095 C.3       1 FMN         0.1741
     20 C2'        -1.7519   -4.3580    2.4592 C.3       1 FMN         0.1411
     21 O2'        -2.9043   -3.7429    3.0366 O.3       1 FMN        -0.6334
     22 C3'        -1.8403   -5.8851    2.6514 C.3       1 FMN         0.1067
     23 O3'        -2.7209   -6.4411    1.6760 O.3       1 FMN        -0.6301
     24 C4'        -2.3387   -6.2884    4.0521 C.3       1 FMN         0.0813
     25 O4'        -1.4381   -5.7745    5.0355 O.3       1 FMN        -0.6796
     26 C5'        -2.4312   -7.8040    4.2232 C.3       1 FMN         0.1813
     27 O5'        -2.8971   -8.0892    5.5385 O.3       1 FMN        -0.5642
     28 P          -3.0868   -9.6661    5.9838 P.3       1 FMN         1.3127
     29 O1P        -4.1155  -10.2257    5.0056 O.co2     1 FMN        -0.9243
     30 O2P        -3.5875   -9.5698    7.4219 O.co2     1 FMN        -0.9243
     31 O3P        -1.6952  -10.2780    5.8516 O.co2     1 FMN        -0.9243
     32 HN3         3.6607   -8.2239    2.5509 H         1 FMN         0.3334
     33 H6          3.2920   -2.4807   -1.1791 H         1 FMN         0.1447
     34 HM71        1.5822   -0.3820   -2.6964 H         1 FMN         0.0392
     35 HM72        1.8243    0.8717   -1.4550 H         1 FMN         0.0392
     36 HM73        3.1694   -0.1698   -1.9170 H         1 FMN         0.0392
     37 HM81       -1.0476    0.1680   -0.7429 H         1 FMN         0.0535
     38 HM82       -0.6692    0.6350    0.9334 H         1 FMN         0.0535
     39 HM83        0.3769    1.1733   -0.3794 H         1 FMN         0.0535
     40 H9         -0.6349   -1.6256    1.7128 H         1 FMN         0.1971
     41 H1'1       -0.5966   -2.6906    3.2480 H         1 FMN         0.1123
     42 H1'2       -0.2877   -4.2309    4.0717 H         1 FMN         0.1123
     43 H2'        -1.7471   -4.1167    1.3894 H         1 FMN         0.0570
     44 HO2'       -3.6732   -4.1405    2.6014 H         1 FMN         0.4322
     45 H3'        -0.8493   -6.3342    2.5067 H         1 FMN         0.0570
     46 HO3'       -2.3441   -6.2231    0.8100 H         1 FMN         0.4323
     47 H4'        -3.3185   -5.8383    4.2494 H         1 FMN         0.0270
     48 HO4'       -1.7880   -6.0501    5.8957 H         1 FMN         0.4672
     49 H5'1       -3.1418   -8.2448    3.5168 H         1 FMN         0.0181
     50 H5'2       -1.4504   -8.2739    4.1013 H         1 FMN         0.0181
@<TRIPOS>BOND
     1    1    2 ar
     2    1   18 ar
     3    2    3 2
     4    2    4 ar
     5    4    5 ar
     6    4   32 1
     7    5    6 2
     8    5    7 ar
     9    7    8 ar
    10    7   18 ar
    11    8    9 ar
    12    9   10 ar
    13    9   16 ar
    14   10   11 ar
    15   10   33 1
    16   11   12 1
    17   11   13 ar
    18   12   34 1
    19   12   35 1
    20   12   36 1
    21   13   14 1
    22   13   15 ar
    23   14   37 1
    24   14   38 1
    25   14   39 1
    26   15   16 ar
    27   15   40 1
    28   16   17 ar
    29   17   18 ar
    30   17   19 1
    31   19   20 1
    32   19   41 1
    33   19   42 1
    34   20   21 1
    35   20   22 1
    36   20   43 1
    37   21   44 1
    38   22   23 1
    39   22   24 1
    40   22   45 1
    41   23   46 1
    42   24   25 1
    43   24   26 1
    44   24   47 1
    45   25   48 1
    46   26   27 1
    47   26   49 1
    48   26   50 1
    49   27   28 1
    50   28   29 2
    51   28   30 1
    52   28   31 1
@<TRIPOS>SUBSTRUCTURE
     1 FMN         1 GROUP 0 A     ****
@<TRIPOS>MOLECULE
[5-(7,8-dimethyl-2,4-dioxo-benzo[g]pteridin-10-yl)-2,3,4-trihydroxy-pentyl] phosphate
   50    52     1     0     0
SMALL
USER_CHARGES

@<TRIPOS>ATOM
      1 N1          1.2277   -6.1042    3.2212 N.2       1 FMN        -0.6988
      2 C2          2.0186   -7.2293    3.3119 C.ar      1 FMN         0.8536
      3 O2          1.7830   -8.1102    4.1421 O.2       1 FMN        -0.6019
      4 N3          3.1050   -7.3794    2.4494 N.pl3     1 FMN        -0.6223
      5 C4          3.4932   -6.4908    1.4752 C.ar      1 FMN         0.6334
      6 O4          4.4350   -6.5937    0.7081 O.2       1 FMN        -0.6125
      7 C4A         2.6001   -5.2945    1.4253 C.ar      1 FMN         0.2211
      8 N5          2.8818   -4.3956    0.5389 N.2       1 FMN        -0.4286
      9 C5A         2.0834   -3.2454    0.4374 C.ar      1 FMN         0.0170
     10 C6          2.4298   -2.2996   -0.5398 C.ar      1 FMN        -0.0553
     11 C7          1.6851   -1.1351   -0.6992 C.ar      1 FMN        -0.1211
     12 C7M         2.0850   -0.1527   -1.7495 C.3       1 FMN        -0.0435
     13 C8          0.5864   -0.9067    0.1183 C.ar      1 FMN        -0.0173
     14 C8M        -0.2342    0.3332   -0.0271 C.3       1 FMN        -0.0630
     15 C9          0.2330   -1.8421    1.0943 C.ar      1 FMN        -0.1390
     16 C9A         0.9704   -3.0274    1.2749 C.ar      1 FMN         0.1887
     17 N10         0.6547   -4.0033    2.2457 N.pl3     1 FMN        -0.5294
     18 C10         1.4328   -5.1491    2.3626 C.ar      1 FMN         0.6151
     19 C1'        -0.5012   -3.7679    3.1095 C.3       1 FMN         0.1741
     20 C2'        -1.7519   -4.3580    2.4592 C.3       1 FMN         0.1411
     21 O2'        -2.9043   -3.7429    3.0366 O.3       1 FMN        -0.6334
     22 C3'        -1.8403   -5.8851    2.6514 C.3       1 FMN         0.1067
     23 O3'        -0.9962   -6.5374    1.7038 O.3       1 FMN        -0.6301
     24 C4'        -3.2723   -6.4304    2.4933 C.3       1 FMN         0.0813
     25 O4'        -3.9144   -5.7535    1.4109 O.3       1 FMN        -0.6796
     26 C5'        -4.1123   -6.2351    3.7547 C.3       1 FMN         0.1813
     27 O5'        -5.2120   -7.1394    3.7177 O.3       1 FMN        -0.5642
     28 P          -6.2821   -7.1322    4.9730 P.3       1 FMN         1.3127
     29 O1P        -5.4454   -7.4837    6.1996 O.co2     1 FMN        -0.9243
     30 O2P        -7.2921   -8.2073    4.5829 O.co2     1 FMN        -0.9243
     31 O3P        -6.8561   -5.7185    4.9871 O.co2     1 FMN        -0.9243
     32 HN3         3.6607   -8.2239    2.5509 H         1 FMN         0.3334
     33 H6          3.2920   -2.4807   -1.1791 H         1 FMN         0.1447
     34 HM71        1.5822   -0.3820   -2.6964 H         1 FMN         0.0392
     35 HM72        1.8243    0.8717   -1.4550 H         1 FMN         0.0392
     36 HM73        3.1694   -0.1698   -1.9170 H         1 FMN         0.0392
     37 HM81       -1.0476    0.1680   -0.7429 H         1 FMN         0.0535
     38 HM82       -0.6692    0.6350    0.9334 H         1 FMN         0.0535
     39 HM83        0.3769    1.1733   -0.3794 H         1 FMN         0.0535
     40 H9         -0.6349   -1.6256    1.7128 H         1 FMN         0.1971
     41 H1'1       -0.5966   -2.6906    3.2480 H         1 FMN         0.1123
     42 H1'2       -0.2877   -4.2309    4.0717 H         1 FMN         0.1123
     43 H2'        -1.7471   -4.1167    1.3894 H         1 FMN         0.0570
     44 HO2'       -2.8274   -2.7942    2.8552 H         1 FMN         0.4322
     45 H3'        -1.4895   -6.1524    3.6564 H         1 FMN         0.0570
     46 HO3'       -1.3184   -6.2804    0.8265 H         1 FMN         0.4323
     47 H4'        -3.2455   -7.4951    2.2339 H         1 FMN         0.0270
     48 HO4'       -4.8065   -6.1255    1.3478 H         1 FMN         0.4672
     49 H5'1       -3.5347   -6.4523    4.6589 H         1 FMN         0.0181
     50 H5'2       -4.5114   -5.2175    3.8075 H         1 FMN         0.0181
@<TRIPOS>BOND
     1    1    2 ar
     2    1   18 ar
     3    2    3 2
     4    2    4 ar
     5    4    5 ar
     6    4   32 1
     7    5    6 2
     8    5    7 ar
     9    7    8 ar
    10    7   18 ar
    11    8    9 ar
    12    9   10 ar
    13    9   16 ar
    14   10   11 ar
    15   10   33 1
    16   11   12 1
    17   11   13 ar
    18   12   34 1
    19   12   35 1
    20   12   36 1
    21   13   14 1
    22   13   15 ar
    23   14   37 1
    24   14   38 1
    25   14   39 1
    26   15   16 ar
    27   15   40 1
    28   16   17 ar
    29   17   18 ar
    30   17   19 1
    31   19   20 1
    32   19   41 1
    33   19   42 1
    34   20   21 1
    35   20   22 1
    36   20   43 1
    37   21   44 1
    38   22   23 1
    39   22   24 1
    40   22   45 1
    41   23   46 1
    42   24   25 1
    43   24   26 1
    44   24   47 1
    45   25   48 1
    46   26   27 1
    47   26   49 1
    48   26   50 1
    49   27   28 1
    50   28   29 2
    51   28   30 1
    52   28   31 1
@<TRIPOS>SUBSTRUCTURE
     1 FMN         1 GROUP 0 A     ****
@<TRIPOS>MOLECULE
[5-(7,8-dimethyl-2,4-dioxo-benzo[g]pteridin-10-yl)-2,3,4-trihydroxy-pentyl] phosphate
   50    52     1     0     0
SMALL
USER_CHARGES

@<TRIPOS>ATOM
      1 N1          1.2277   -6.1042    3.2212 N.2       1 FMN        -0.6988
      2 C2          2.0186   -7.2293    3.3119 C.ar      1 FMN         0.8536
      3 O2          1.7830   -8.1102    4.1421 O.2       1 FMN        -0.6019
      4 N3          3.1050   -7.3794    2.4494 N.pl3     1 FMN        -0.6223
      5 C4          3.4932   -6.4908    1.4752 C.ar      1 FMN         0.6334
      6 O4          4.4350   -6.5937    0.7081 O.2       1 FMN        -0.6125
      7 C4A         2.6001   -5.2945    1.4253 C.ar      1 FMN         0.2211
      8 N5          2.8818   -4.3956    0.5389 N.2       1 FMN        -0.4286
      9 C5A         2.0834   -3.2454    0.4374 C.ar      1 FMN         0.0170
     10 C6          2.4298   -2.2996   -0.5398 C.ar      1 FMN        -0.0553
     11 C7          1.6851   -1.1351   -0.6992 C.ar      1 FMN        -0.1211
     12 C7M         2.0850   -0.1527   -1.7495 C.3       1 FMN        -0.0435
     13 C8          0.5864   -0.9067    0.1183 C.ar      1 FMN        -0.0173
     14 C8M        -0.2342    0.3332   -0.0271 C.3       1 FMN        -0.0630
     15 C9          0.2330   -1.8421    1.0943 C.ar      1 FMN        -0.1390
     16 C9A         0.9704   -3.0274    1.2749 C.ar      1 FMN         0.1887
     17 N10         0.6547   -4.0033    2.2457 N.pl3     1 FMN        -0.5294
     18 C10         1.4328   -5.1491    2.3626 C.ar      1 FMN         0.6151
     19 C1'        -0.5012   -3.7679    3.1095 C.3       1 FMN         0.1741
     20 C2'        -1.7519   -4.3580    2.4592 C.3       1 FMN         0.1411
     21 O2'        -2.9043   -3.7429    3.0366 O.3       1 FMN        -0.6334
     22 C3'        -1.8403   -5.8851    2.6514 C.3       1 FMN         0.1067
     23 O3'        -3.0236   -6.3795    2.0259 O.3       1 FMN        -0.6301
     24 C4'        -1.8534   -6.3063    4.1331 C.3       1 FMN         0.0813
     25 O4'        -1.4709   -7.6795    4.2330 O.3       1 FMN        -0.6796
     26 C5'        -3.2302   -6.1379    4.7742 C.3       1 FMN         0.1813
     27 O5'        -3.1548   -6.5474    6.1362 O.3       1 FMN        -0.5642
     28 P          -4.5176   -6.4641    7.0618 P.3       1 FMN         1.3127
     29 O1P        -4.9054   -4.9884    7.0514 O.co2     1 FMN        -0.9243
     30 O2P        -4.0524   -6.9730    8.4229 O.co2     1 FMN        -0.9243
     31 O3P        -5.5178   -7.3823    6.3655 O.co2     1 FMN        -0.9243
     32 HN3         3.6607   -8.2239    2.5509 H         1 FMN         0.3334
     33 H6          3.2920   -2.4807   -1.1791 H         1 FMN         0.1447
     34 HM71        1.5822   -0.3820   -2.6964 H         1 FMN         0.0392
     35 HM72        1.8243    0.8717   -1.4550 H         1 FMN         0.0392
     36 HM73        3.1694   -0.1698   -1.9170 H         1 FMN         0.0392
     37 HM81       -1.0476    0.1680   -0.7429 H         1 FMN         0.0535
     38 HM82       -0.6692    0.6350    0.9334 H         1 FMN         0.0535
     39 HM83        0.3769    1.1733   -0.3794 H         1 FMN         0.0535
     40 H9         -0.6349   -1.6256    1.7128 H         1 FMN         0.1971
     41 H1'1       -0.5966   -2.6906    3.2480 H         1 FMN         0.1123
     42 H1'2       -0.2877   -4.2309    4.0717 H         1 FMN         0.1123
     43 H2'        -1.7471   -4.1167    1.3894 H         1 FMN         0.0570
     44 HO2'       -3.6732   -4.1405    2.6014 H         1 FMN         0.4322
     45 H3'        -0.9785   -6.3686    2.1736 H         1 FMN         0.0570
     46 HO3'       -2.9525   -6.1531    1.0861 H         1 FMN         0.4323
     47 H4'        -1.1143   -5.7264    4.6980 H         1 FMN         0.0270
     48 HO4'       -1.4926   -7.9005    5.1759 H         1 FMN         0.4672
     49 H5'1       -3.5543   -5.0923    4.7597 H         1 FMN         0.0181
     50 H5'2       -3.9762   -6.7622    4.2729 H         1 FMN         0.0181
@<TRIPOS>BOND
     1    1    2 ar
     2    1   18 ar
     3    2    3 2
     4    2    4 ar
     5    4    5 ar
     6    4   32 1
     7    5    6 2
     8    5    7 ar
     9    7    8 ar
    10    7   18 ar
    11    8    9 ar
    12    9   10 ar
    13    9   16 ar
    14   10   11 ar
    15   10   33 1
    16   11   12 1
    17   11   13 ar
    18   12   34 1
    19   12   35 1
    20   12   36 1
    21   13   14 1
    22   13   15 ar
    23   14   37 1
    24   14   38 1
    25   14   39 1
    26   15   16 ar
    27   15   40 1
    28   16   17 ar
    29   17   18 ar
    30   17   19 1
    31   19   20 1
    32   19   41 1
    33   19   42 1
    34   20   21 1
    35   20   22 1
    36   20   43 1
    37   21   44 1
    38   22   23 1
    39   22   24 1
    40   22   45 1
    41   23   46 1
    42   24   25 1
    43   24   26 1
    44   24   47 1
    45   25   48 1
    46   26   27 1
    47   26   49 1
    48   26   50 1
    49   27   28 1
    50   28   29 2
    51   28   30 1
    52   28   31 1
@<TRIPOS>SUBSTRUCTURE
     1 FMN         1 GROUP 0 A     ****
@<TRIPOS>MOLECULE
[5-(7,8-dimethyl-2,4-dioxo-benzo[g]pteridin-10-yl)-2,3,4-trihydroxy-pentyl] phosphate
   50    52     1     0     0
SMALL
USER_CHARGES

@<TRIPOS>ATOM
      1 N1          1.2277   -6.1042    3.2212 N.2       1 FMN        -0.6988
      2 C2          2.0186   -7.2293    3.3119 C.ar      1 FMN         0.8536
      3 O2          1.7830   -8.1102    4.1421 O.2       1 FMN        -0.6019
      4 N3          3.1050   -7.3794    2.4494 N.pl3     1 FMN        -0.6223
      5 C4          3.4932   -6.4908    1.4752 C.ar      1 FMN         0.6334
      6 O4          4.4350   -6.5937    0.7081 O.2       1 FMN        -0.6125
      7 C4A         2.6001   -5.2945    1.4253 C.ar      1 FMN         0.2211
      8 N5          2.8818   -4.3956    0.5389 N.2       1 FMN        -0.4286
      9 C5A         2.0834   -3.2454    0.4374 C.ar      1 FMN         0.0170
     10 C6          2.4298   -2.2996   -0.5398 C.ar      1 FMN        -0.0553
     11 C7          1.6851   -1.1351   -0.6992 C.ar      1 FMN        -0.1211
     12 C7M         2.0850   -0.1527   -1.7495 C.3       1 FMN        -0.0435
     13 C8          0.5864   -0.9067    0.1183 C.ar      1 FMN        -0.0173
     14 C8M        -0.2342    0.3332   -0.0271 C.3       1 FMN        -0.0630
     15 C9          0.2330   -1.8421    1.0943 C.ar      1 FMN        -0.1390
     16 C9A         0.9704   -3.0274    1.2749 C.ar      1 FMN         0.1887
     17 N10         0.6547   -4.0033    2.2457 N.pl3     1 FMN        -0.5294
     18 C10         1.4328   -5.1491    2.3626 C.ar      1 FMN         0.6151
     19 C1'        -0.5012   -3.7679    3.1095 C.3       1 FMN         0.1741
     20 C2'        -0.0563   -3.0138    4.3619 C.3       1 FMN         0.1411
     21 O2'         1.2000   -3.5387    4.7929 O.3       1 FMN        -0.6334
     22 C3'        -1.0797   -3.1379    5.5082 C.3       1 FMN         0.1067
     23 O3'        -1.2466   -4.5118    5.8556 O.3       1 FMN        -0.6301
     24 C4'        -2.4578   -2.5486    5.1523 C.3       1 FMN         0.0813
     25 O4'        -2.9842   -3.2407    4.0183 O.3       1 FMN        -0.6796
     26 C5'        -2.3860   -1.0585    4.8214 C.3       1 FMN         0.1813
     27 O5'        -1.8791   -0.3612    5.9551 O.3       1 FMN        -0.5642
     28 P          -2.8189    0.8022    6.6510 P.3       1 FMN         1.3127
     29 O1P        -3.0447    1.8316    5.5475 O.co2     1 FMN        -0.9243
     30 O2P        -1.9581    1.3090    7.8045 O.co2     1 FMN        -0.9243
     31 O3P        -4.0811    0.0688    7.0952 O.co2     1 FMN        -0.9243
     32 HN3         3.6607   -8.2239    2.5509 H         1 FMN         0.3334
     33 H6          3.2920   -2.4807   -1.1791 H         1 FMN         0.1447
     34 HM71        1.5822   -0.3820   -2.6964 H         1 FMN         0.0392
     35 HM72        1.8243    0.8717   -1.4550 H         1 FMN         0.0392
     36 HM73        3.1694   -0.1698   -1.9170 H         1 FMN         0.0392
     37 HM81       -1.0476    0.1680   -0.7429 H         1 FMN         0.0535
     38 HM82       -0.6692    0.6350    0.9334 H         1 FMN         0.0535
     39 HM83        0.3769    1.1733   -0.3794 H         1 FMN         0.0535
     40 H9         -0.6349   -1.6256    1.7128 H         1 FMN         0.1971
     41 H1'1       -0.9287   -4.7387    3.3617 H         1 FMN         0.1123
     42 H1'2       -1.2289   -3.2002    2.5315 H         1 FMN         0.1123
     43 H2'         0.0940   -1.9572    4.1093 H         1 FMN         0.0570
     44 HO2'        1.8193   -3.4013    4.0605 H         1 FMN         0.4322
     45 H3'        -0.7081   -2.6082    6.3948 H         1 FMN         0.0570
     46 HO3'       -1.8951   -4.5361    6.5755 H         1 FMN         0.4323
     47 H4'        -3.1614   -2.7057    5.9779 H         1 FMN         0.0270
     48 HO4'       -3.0579   -4.1712    4.2771 H         1 FMN         0.4672
     49 H5'1       -1.7086   -0.8658    3.9834 H         1 FMN         0.0181
     50 H5'2       -3.3786   -0.6584    4.5928 H         1 FMN         0.0181
@<TRIPOS>BOND
     1    1    2 ar
     2    1   18 ar
     3    2    3 2
     4    2    4 ar
     5    4    5 ar
     6    4   32 1
     7    5    6 2
     8    5    7 ar
     9    7    8 ar
    10    7   18 ar
    11    8    9 ar
    12    9   10 ar
    13    9   16 ar
    14   10   11 ar
    15   10   33 1
    16   11   12 1
    17   11   13 ar
    18   12   34 1
    19   12   35 1
    20   12   36 1
    21   13   14 1
    22   13   15 ar
    23   14   37 1
    24   14   38 1
    25   14   39 1
    26   15   16 ar
    27   15   40 1
    28   16   17 ar
    29   17   18 ar
    30   17   19 1
    31   19   20 1
    32   19   41 1
    33   19   42 1
    34   20   21 1
    35   20   22 1
    36   20   43 1
    37   21   44 1
    38   22   23 1
    39   22   24 1
    40   22   45 1
    41   23   46 1
    42   24   25 1
    43   24   26 1
    44   24   47 1
    45   25   48 1
    46   26   27 1
    47   26   49 1
    48   26   50 1
    49   27   28 1
    50   28   29 2
    51   28   30 1
    52   28   31 1
@<TRIPOS>SUBSTRUCTURE
     1 FMN         1 GROUP 0 A     ****
@<TRIPOS>MOLECULE
[5-(7,8-dimethyl-2,4-dioxo-benzo[g]pteridin-10-yl)-2,3,4-trihydroxy-pentyl] phosphate
   50    52     1     0     0
SMALL
USER_CHARGES

@<TRIPOS>ATOM
      1 N1          1.2277   -6.1042    3.2212 N.2       1 FMN        -0.6988
      2 C2          2.0186   -7.2293    3.3119 C.ar      1 FMN         0.8536
      3 O2          1.7830   -8.1102    4.1421 O.2       1 FMN        -0.6019
      4 N3          3.1050   -7.3794    2.4494 N.pl3     1 FMN        -0.6223
      5 C4          3.4932   -6.4908    1.4752 C.ar      1 FMN         0.6334
      6 O4          4.4350   -6.5937    0.7081 O.2       1 FMN        -0.6125
      7 C4A         2.6001   -5.2945    1.4253 C.ar      1 FMN         0.2211
      8 N5          2.8818   -4.3956    0.5389 N.2       1 FMN        -0.4286
      9 C5A         2.0834   -3.2454    0.4374 C.ar      1 FMN         0.0170
     10 C6          2.4298   -2.2996   -0.5398 C.ar      1 FMN        -0.0553
     11 C7          1.6851   -1.1351   -0.6992 C.ar      1 FMN        -0.1211
     12 C7M         2.0850   -0.1527   -1.7495 C.3       1 FMN        -0.0435
     13 C8          0.5864   -0.9067    0.1183 C.ar      1 FMN        -0.0173
     14 C8M        -0.2342    0.3332   -0.0271 C.3       1 FMN        -0.0630
     15 C9          0.2330   -1.8421    1.0943 C.ar      1 FMN        -0.1390
     16 C9A         0.9704   -3.0274    1.2749 C.ar      1 FMN         0.1887
     17 N10         0.6547   -4.0033    2.2457 N.pl3     1 FMN        -0.5294
     18 C10         1.4328   -5.1491    2.3626 C.ar      1 FMN         0.6151
     19 C1'        -0.5012   -3.7679    3.1095 C.3       1 FMN         0.1741
     20 C2'        -1.7519   -4.3580    2.4592 C.3       1 FMN         0.1411
     21 O2'        -1.9553   -3.7249    1.1953 O.3       1 FMN        -0.6334
     22 C3'        -3.0070   -4.1638    3.3332 C.3       1 FMN         0.1067
     23 O3'        -3.2338   -2.7710    3.5442 O.3       1 FMN        -0.6301
     24 C4'        -2.9003   -4.8589    4.7039 C.3       1 FMN         0.0813
     25 O4'        -1.7835   -4.3219    5.4156 O.3       1 FMN        -0.6796
     26 C5'        -2.7141   -6.3702    4.5773 C.3       1 FMN         0.1813
     27 O5'        -2.6250   -6.9320    5.8830 O.3       1 FMN        -0.5642
     28 P          -1.2531   -7.7480    6.2991 P.3       1 FMN         1.3127
     29 O1P        -1.1678   -8.8996    5.3018 O.co2     1 FMN        -0.9243
     30 O2P        -1.5256   -8.1896    7.7339 O.co2     1 FMN        -0.9243
     31 O3P        -0.1338   -6.7191    6.1693 O.co2     1 FMN        -0.9243
     32 HN3         3.6607   -8.2239    2.5509 H         1 FMN         0.3334
     33 H6          3.2920   -2.4807   -1.1791 H         1 FMN         0.1447
     34 HM71        1.5822   -0.3820   -2.6964 H         1 FMN         0.0392
     35 HM72        1.8243    0.8717   -1.4550 H         1 FMN         0.0392
     36 HM73        3.1694   -0.1698   -1.9170 H         1 FMN         0.0392
     37 HM81       -1.0476    0.1680   -0.7429 H         1 FMN         0.0535
     38 HM82       -0.6692    0.6350    0.9334 H         1 FMN         0.0535
     39 HM83        0.3769    1.1733   -0.3794 H         1 FMN         0.0535
     40 H9         -0.6349   -1.6256    1.7128 H         1 FMN         0.1971
     41 H1'1       -0.5966   -2.6906    3.2480 H         1 FMN         0.1123
     42 H1'2       -0.2877   -4.2309    4.0717 H         1 FMN         0.1123
     43 H2'        -1.5888   -5.4264    2.2735 H         1 FMN         0.0570
     44 HO2'       -2.7528   -4.1231    0.8155 H         1 FMN         0.4322
     45 H3'        -3.8843   -4.5745    2.8172 H         1 FMN         0.0570
     46 HO3'       -4.0282   -2.7026    4.0953 H         1 FMN         0.4323
     47 H4'        -3.7929   -4.6501    5.3047 H         1 FMN         0.0270
     48 HO4'       -1.9551   -3.3739    5.5164 H         1 FMN         0.4672
     49 H5'1       -3.5652   -6.8384    4.0723 H         1 FMN         0.0181
     50 H5'2       -1.7904   -6.6090    4.0414 H         1 FMN         0.0181
@<TRIPOS>BOND
     1    1    2 ar
     2    1   18 ar
     3    2    3 2
     4    2    4 ar
     5    4    5 ar
     6    4   32 1
     7    5    6 2
     8    5    7 ar
     9    7    8 ar
    10    7   18 ar
    11    8    9 ar
    12    9   10 ar
    13    9   16 ar
    14   10   11 ar
    15   10   33 1
    16   11   12 1
    17   11   13 ar
    18   12   34 1
    19   12   35 1
    20   12   36 1
    21   13   14 1
    22   13   15 ar
    23   14   37 1
    24   14   38 1
    25   14   39 1
    26   15   16 ar
    27   15   40 1
    28   16   17 ar
    29   17   18 ar
    30   17   19 1
    31   19   20 1
    32   19   41 1
    33   19   42 1
    34   20   21 1
    35   20   22 1
    36   20   43 1
    37   21   44 1
    38   22   23 1
    39   22   24 1
    40   22   45 1
    41   23   46 1
    42   24   25 1
    43   24   26 1
    44   24   47 1
    45   25   48 1
    46   26   27 1
    47   26   49 1
    48   26   50 1
    49   27   28 1
    50   28   29 2
    51   28   30 1
    52   28   31 1
@<TRIPOS>SUBSTRUCTURE
     1 FMN         1 GROUP 0 A     ****
@<TRIPOS>MOLECULE
[5-(7,8-dimethyl-2,4-dioxo-benzo[g]pteridin-10-yl)-2,3,4-trihydroxy-pentyl] phosphate
   50    52     1     0     0
SMALL
USER_CHARGES

@<TRIPOS>ATOM
      1 N1          1.2277   -6.1042    3.2212 N.2       1 FMN        -0.6988
      2 C2          2.0186   -7.2293    3.3119 C.ar      1 FMN         0.8536
      3 O2          1.7830   -8.1102    4.1421 O.2       1 FMN        -0.6019
      4 N3          3.1050   -7.3794    2.4494 N.pl3     1 FMN        -0.6223
      5 C4          3.4932   -6.4908    1.4752 C.ar      1 FMN         0.6334
      6 O4          4.4350   -6.5937    0.7081 O.2       1 FMN        -0.6125
      7 C4A         2.6001   -5.2945    1.4253 C.ar      1 FMN         0.2211
      8 N5          2.8818   -4.3956    0.5389 N.2       1 FMN        -0.4286
      9 C5A         2.0834   -3.2454    0.4374 C.ar      1 FMN         0.0170
     10 C6          2.4298   -2.2996   -0.5398 C.ar      1 FMN        -0.0553
     11 C7          1.6851   -1.1351   -0.6992 C.ar      1 FMN        -0.1211
     12 C7M         2.0850   -0.1527   -1.7495 C.3       1 FMN        -0.0435
     13 C8          0.5864   -0.9067    0.1183 C.ar      1 FMN        -0.0173
     14 C8M        -0.2342    0.3332   -0.0271 C.3       1 FMN        -0.0630
     15 C9          0.2330   -1.8421    1.0943 C.ar      1 FMN        -0.1390
     16 C9A         0.9704   -3.0274    1.2749 C.ar      1 FMN         0.1887
     17 N10         0.6547   -4.0033    2.2457 N.pl3     1 FMN        -0.5294
     18 C10         1.4328   -5.1491    2.3626 C.ar      1 FMN         0.6151
     19 C1'        -0.5012   -3.7679    3.1095 C.3       1 FMN         0.1741
     20 C2'        -1.7519   -4.3580    2.4592 C.3       1 FMN         0.1411
     21 O2'        -1.9553   -3.7249    1.1953 O.3       1 FMN        -0.6334
     22 C3'        -3.0070   -4.1638    3.3332 C.3       1 FMN         0.1067
     23 O3'        -2.9827   -2.8661    3.9259 O.3       1 FMN        -0.6301
     24 C4'        -3.1301   -5.2147    4.4529 C.3       1 FMN         0.0813
     25 O4'        -1.8368   -5.4603    5.0088 O.3       1 FMN        -0.6796
     26 C5'        -3.7011   -6.5391    3.9481 C.3       1 FMN         0.1813
     27 O5'        -4.9982   -6.3034    3.4094 O.3       1 FMN        -0.5642
     28 P          -5.8403   -7.5803    2.7917 P.3       1 FMN         1.3127
     29 O1P        -4.9668   -8.1108    1.6587 O.co2     1 FMN        -0.9243
     30 O2P        -7.1474   -6.9484    2.3227 O.co2     1 FMN        -0.9243
     31 O3P        -6.0029   -8.5430    3.9643 O.co2     1 FMN        -0.9243
     32 HN3         3.6607   -8.2239    2.5509 H         1 FMN         0.3334
     33 H6          3.2920   -2.4807   -1.1791 H         1 FMN         0.1447
     34 HM71        1.5822   -0.3820   -2.6964 H         1 FMN         0.0392
     35 HM72        1.8243    0.8717   -1.4550 H         1 FMN         0.0392
     36 HM73        3.1694   -0.1698   -1.9170 H         1 FMN         0.0392
     37 HM81       -1.0476    0.1680   -0.7429 H         1 FMN         0.0535
     38 HM82       -0.6692    0.6350    0.9334 H         1 FMN         0.0535
     39 HM83        0.3769    1.1733   -0.3794 H         1 FMN         0.0535
     40 H9         -0.6349   -1.6256    1.7128 H         1 FMN         0.1971
     41 H1'1       -0.5966   -2.6906    3.2480 H         1 FMN         0.1123
     42 H1'2       -0.2877   -4.2309    4.0717 H         1 FMN         0.1123
     43 H2'        -1.5888   -5.4264    2.2735 H         1 FMN         0.0570
     44 HO2'       -1.1640   -3.9085    0.6672 H         1 FMN         0.4322
     45 H3'        -3.9069   -4.2331    2.7088 H         1 FMN         0.0570
     46 HO3'       -2.9694   -2.2304    3.1943 H         1 FMN         0.4323
     47 H4'        -3.7596   -4.8314    5.2642 H         1 FMN         0.0270
     48 HO4'       -1.9607   -6.1230    5.7045 H         1 FMN         0.4672
     49 H5'1       -3.0832   -6.9645    3.1508 H         1 FMN         0.0181
     50 H5'2       -3.7988   -7.2616    4.7643 H         1 FMN         0.0181
@<TRIPOS>BOND
     1    1    2 ar
     2    1   18 ar
     3    2    3 2
     4    2    4 ar
     5    4    5 ar
     6    4   32 1
     7    5    6 2
     8    5    7 ar
     9    7    8 ar
    10    7   18 ar
    11    8    9 ar
    12    9   10 ar
    13    9   16 ar
    14   10   11 ar
    15   10   33 1
    16   11   12 1
    17   11   13 ar
    18   12   34 1
    19   12   35 1
    20   12   36 1
    21   13   14 1
    22   13   15 ar
    23   14   37 1
    24   14   38 1
    25   14   39 1
    26   15   16 ar
    27   15   40 1
    28   16   17 ar
    29   17   18 ar
    30   17   19 1
    31   19   20 1
    32   19   41 1
    33   19   42 1
    34   20   21 1
    35   20   22 1
    36   20   43 1
    37   21   44 1
    38   22   23 1
    39   22   24 1
    40   22   45 1
    41   23   46 1
    42   24   25 1
    43   24   26 1
    44   24   47 1
    45   25   48 1
    46   26   27 1
    47   26   49 1
    48   26   50 1
    49   27   28 1
    50   28   29 2
    51   28   30 1
    52   28   31 1
@<TRIPOS>SUBSTRUCTURE
     1 FMN         1 GROUP 0 A     ****
@<TRIPOS>MOLECULE
[5-(7,8-dimethyl-2,4-dioxo-benzo[g]pteridin-10-yl)-2,3,4-trihydroxy-pentyl] phosphate
   50    52     1     0     0
SMALL
USER_CHARGES

@<TRIPOS>ATOM
      1 N1          1.2277   -6.1042    3.2212 N.2       1 FMN        -0.6988
      2 C2          2.0186   -7.2293    3.3119 C.ar      1 FMN         0.8536
      3 O2          1.7830   -8.1102    4.1421 O.2       1 FMN        -0.6019
      4 N3          3.1050   -7.3794    2.4494 N.pl3     1 FMN        -0.6223
      5 C4          3.4932   -6.4908    1.4752 C.ar      1 FMN         0.6334
      6 O4          4.4350   -6.5937    0.7081 O.2       1 FMN        -0.6125
      7 C4A         2.6001   -5.2945    1.4253 C.ar      1 FMN         0.2211
      8 N5          2.8818   -4.3956    0.5389 N.2       1 FMN        -0.4286
      9 C5A         2.0834   -3.2454    0.4374 C.ar      1 FMN         0.0170
     10 C6          2.4298   -2.2996   -0.5398 C.ar      1 FMN        -0.0553
     11 C7          1.6851   -1.1351   -0.6992 C.ar      1 FMN        -0.1211
     12 C7M         2.0850   -0.1527   -1.7495 C.3       1 FMN        -0.0435
     13 C8          0.5864   -0.9067    0.1183 C.ar      1 FMN        -0.0173
     14 C8M        -0.2342    0.3332   -0.0271 C.3       1 FMN        -0.0630
     15 C9          0.2330   -1.8421    1.0943 C.ar      1 FMN        -0.1390
     16 C9A         0.9704   -3.0274    1.2749 C.ar      1 FMN         0.1887
     17 N10         0.6547   -4.0033    2.2457 N.pl3     1 FMN        -0.5294
     18 C10         1.4328   -5.1491    2.3626 C.ar      1 FMN         0.6151
     19 C1'        -0.5012   -3.7679    3.1095 C.3       1 FMN         0.1741
     20 C2'        -1.7519   -4.3580    2.4592 C.3       1 FMN         0.1411
     21 O2'        -2.9043   -3.7429    3.0366 O.3       1 FMN        -0.6334
     22 C3'        -1.8403   -5.8851    2.6514 C.3       1 FMN         0.1067
     23 O3'        -2.7209   -6.4411    1.6760 O.3       1 FMN        -0.6301
     24 C4'        -2.3387   -6.2884    4.0521 C.3       1 FMN         0.0813
     25 O4'        -1.4381   -5.7745    5.0355 O.3       1 FMN        -0.6796
     26 C5'        -2.4312   -7.8040    4.2232 C.3       1 FMN         0.1813
     27 O5'        -1.3052   -8.4060    3.5923 O.3       1 FMN        -0.5642
     28 P          -1.1632  -10.0490    3.6321 P.3       1 FMN         1.3127
     29 O1P        -1.0933  -10.3976    5.1160 O.co2     1 FMN        -0.9243
     30 O2P         0.1339  -10.3104    2.8724 O.co2     1 FMN        -0.9243
     31 O3P        -2.4118  -10.5649    2.9228 O.co2     1 FMN        -0.9243
     32 HN3         3.6607   -8.2239    2.5509 H         1 FMN         0.3334
     33 H6          3.2920   -2.4807   -1.1791 H         1 FMN         0.1447
     34 HM71        1.5822   -0.3820   -2.6964 H         1 FMN         0.0392
     35 HM72        1.8243    0.8717   -1.4550 H         1 FMN         0.0392
     36 HM73        3.1694   -0.1698   -1.9170 H         1 FMN         0.0392
     37 HM81       -1.0476    0.1680   -0.7429 H         1 FMN         0.0535
     38 HM82       -0.6692    0.6350    0.9334 H         1 FMN         0.0535
     39 HM83        0.3769    1.1733   -0.3794 H         1 FMN         0.0535
     40 H9         -0.6349   -1.6256    1.7128 H         1 FMN         0.1971
     41 H1'1       -0.5966   -2.6906    3.2480 H         1 FMN         0.1123
     42 H1'2       -0.2877   -4.2309    4.0717 H         1 FMN         0.1123
     43 H2'        -1.7471   -4.1167    1.3894 H         1 FMN         0.0570
     44 HO2'       -2.8274   -2.7942    2.8552 H         1 FMN         0.4322
     45 H3'        -0.8493   -6.3342    2.5067 H         1 FMN         0.0570
     46 HO3'       -3.5847   -6.0245    1.8169 H         1 FMN         0.4323
     47 H4'        -3.3185   -5.8383    4.2494 H         1 FMN         0.0270
     48 HO4'       -1.7880   -6.0501    5.8957 H         1 FMN         0.4672
     49 H5'1       -2.4118   -8.0904    5.2796 H         1 FMN         0.0181
     50 H5'2       -3.3360   -8.1984    3.7507 H         1 FMN         0.0181
@<TRIPOS>BOND
     1    1    2 ar
     2    1   18 ar
     3    2    3 2
     4    2    4 ar
     5    4    5 ar
     6    4   32 1
     7    5    6 2
     8    5    7 ar
     9    7    8 ar
    10    7   18 ar
    11    8    9 ar
    12    9   10 ar
    13    9   16 ar
    14   10   11 ar
    15   10   33 1
    16   11   12 1
    17   11   13 ar
    18   12   34 1
    19   12   35 1
    20   12   36 1
    21   13   14 1
    22   13   15 ar
    23   14   37 1
    24   14   38 1
    25   14   39 1
    26   15   16 ar
    27   15   40 1
    28   16   17 ar
    29   17   18 ar
    30   17   19 1
    31   19   20 1
    32   19   41 1
    33   19   42 1
    34   20   21 1
    35   20   22 1
    36   20   43 1
    37   21   44 1
    38   22   23 1
    39   22   24 1
    40   22   45 1
    41   23   46 1
    42   24   25 1
    43   24   26 1
    44   24   47 1
    45   25   48 1
    46   26   27 1
    47   26   49 1
    48   26   50 1
    49   27   28 1
    50   28   29 2
    51   28   30 1
    52   28   31 1
@<TRIPOS>SUBSTRUCTURE
     1 FMN         1 GROUP 0 A     ****
@<TRIPOS>MOLECULE
[5-(7,8-dimethyl-2,4-dioxo-benzo[g]pteridin-10-yl)-2,3,4-trihydroxy-pentyl] phosphate
   50    52     1     0     0
SMALL
USER_CHARGES

@<TRIPOS>ATOM
      1 N1          1.2277   -6.1042    3.2212 N.2       1 FMN        -0.6988
      2 C2          2.0186   -7.2293    3.3119 C.ar      1 FMN         0.8536
      3 O2          1.7830   -8.1102    4.1421 O.2       1 FMN        -0.6019
      4 N3          3.1050   -7.3794    2.4494 N.pl3     1 FMN        -0.6223
      5 C4          3.4932   -6.4908    1.4752 C.ar      1 FMN         0.6334
      6 O4          4.4350   -6.5937    0.7081 O.2       1 FMN        -0.6125
      7 C4A         2.6001   -5.2945    1.4253 C.ar      1 FMN         0.2211
      8 N5          2.8818   -4.3956    0.5389 N.2       1 FMN        -0.4286
      9 C5A         2.0834   -3.2454    0.4374 C.ar      1 FMN         0.0170
     10 C6          2.4298   -2.2996   -0.5398 C.ar      1 FMN        -0.0553
     11 C7          1.6851   -1.1351   -0.6992 C.ar      1 FMN        -0.1211
     12 C7M         2.0850   -0.1527   -1.7495 C.3       1 FMN        -0.0435
     13 C8          0.5864   -0.9067    0.1183 C.ar      1 FMN        -0.0173
     14 C8M        -0.2342    0.3332   -0.0271 C.3       1 FMN        -0.0630
     15 C9          0.2330   -1.8421    1.0943 C.ar      1 FMN        -0.1390
     16 C9A         0.9704   -3.0274    1.2749 C.ar      1 FMN         0.1887
     17 N10         0.6547   -4.0033    2.2457 N.pl3     1 FMN        -0.5294
     18 C10         1.4328   -5.1491    2.3626 C.ar      1 FMN         0.6151
     19 C1'        -0.5012   -3.7679    3.1095 C.3       1 FMN         0.1741
     20 C2'        -1.7519   -4.3580    2.4592 C.3       1 FMN         0.1411
     21 O2'        -1.9553   -3.7249    1.1953 O.3       1 FMN        -0.6334
     22 C3'        -3.0070   -4.1638    3.3332 C.3       1 FMN         0.1067
     23 O3'        -2.9827   -2.8661    3.9259 O.3       1 FMN        -0.6301
     24 C4'        -3.1301   -5.2147    4.4529 C.3       1 FMN         0.0813
     25 O4'        -4.4866   -5.2668    4.8991 O.3       1 FMN        -0.6796
     26 C5'        -2.2368   -4.8964    5.6510 C.3       1 FMN         0.1813
     27 O5'        -2.4103   -5.9116    6.6347 O.3       1 FMN        -0.5642
     28 P          -1.5520   -5.8043    8.0393 P.3       1 FMN         1.3127
     29 O1P        -0.0896   -5.8370    7.6051 O.co2     1 FMN        -0.9243
     30 O2P        -1.9945   -7.0387    8.8193 O.co2     1 FMN        -0.9243
     31 O3P        -1.9931   -4.4845    8.6652 O.co2     1 FMN        -0.9243
     32 HN3         3.6607   -8.2239    2.5509 H         1 FMN         0.3334
     33 H6          3.2920   -2.4807   -1.1791 H         1 FMN         0.1447
     34 HM71        1.5822   -0.3820   -2.6964 H         1 FMN         0.0392
     35 HM72        1.8243    0.8717   -1.4550 H         1 FMN         0.0392
     36 HM73        3.1694   -0.1698   -1.9170 H         1 FMN         0.0392
     37 HM81       -1.0476    0.1680   -0.7429 H         1 FMN         0.0535
     38 HM82       -0.6692    0.6350    0.9334 H         1 FMN         0.0535
     39 HM83        0.3769    1.1733   -0.3794 H         1 FMN         0.0535
     40 H9         -0.6349   -1.6256    1.7128 H         1 FMN         0.1971
     41 H1'1       -0.5966   -2.6906    3.2480 H         1 FMN         0.1123
     42 H1'2       -0.2877   -4.2309    4.0717 H         1 FMN         0.1123
     43 H2'        -1.5888   -5.4264    2.2735 H         1 FMN         0.0570
     44 HO2'       -2.7528   -4.1231    0.8155 H         1 FMN         0.4322
     45 H3'        -3.9069   -4.2331    2.7088 H         1 FMN         0.0570
     46 HO3'       -2.9694   -2.2304    3.1943 H         1 FMN         0.4323
     47 H4'        -2.8818   -6.2101    4.0668 H         1 FMN         0.0270
     48 HO4'       -4.5178   -5.9362    5.5986 H         1 FMN         0.4672
     49 H5'1       -1.1787   -4.8838    5.3704 H         1 FMN         0.0181
     50 H5'2       -2.5103   -3.9372    6.1014 H         1 FMN         0.0181
@<TRIPOS>BOND
     1    1    2 ar
     2    1   18 ar
     3    2    3 2
     4    2    4 ar
     5    4    5 ar
     6    4   32 1
     7    5    6 2
     8    5    7 ar
     9    7    8 ar
    10    7   18 ar
    11    8    9 ar
    12    9   10 ar
    13    9   16 ar
    14   10   11 ar
    15   10   33 1
    16   11   12 1
    17   11   13 ar
    18   12   34 1
    19   12   35 1
    20   12   36 1
    21   13   14 1
    22   13   15 ar
    23   14   37 1
    24   14   38 1
    25   14   39 1
    26   15   16 ar
    27   15   40 1
    28   16   17 ar
    29   17   18 ar
    30   17   19 1
    31   19   20 1
    32   19   41 1
    33   19   42 1
    34   20   21 1
    35   20   22 1
    36   20   43 1
    37   21   44 1
    38   22   23 1
    39   22   24 1
    40   22   45 1
    41   23   46 1
    42   24   25 1
    43   24   26 1
    44   24   47 1
    45   25   48 1
    46   26   27 1
    47   26   49 1
    48   26   50 1
    49   27   28 1
    50   28   29 2
    51   28   30 1
    52   28   31 1
@<TRIPOS>SUBSTRUCTURE
     1 FMN         1 GROUP 0 A     ****
@<TRIPOS>MOLECULE
[5-(7,8-dimethyl-2,4-dioxo-benzo[g]pteridin-10-yl)-2,3,4-trihydroxy-pentyl] phosphate
   50    52     1     0     0
SMALL
USER_CHARGES

@<TRIPOS>ATOM
      1 N1          1.2277   -6.1042    3.2212 N.2       1 FMN        -0.6988
      2 C2          2.0186   -7.2293    3.3119 C.ar      1 FMN         0.8536
      3 O2          1.7830   -8.1102    4.1421 O.2       1 FMN        -0.6019
      4 N3          3.1050   -7.3794    2.4494 N.pl3     1 FMN        -0.6223
      5 C4          3.4932   -6.4908    1.4752 C.ar      1 FMN         0.6334
      6 O4          4.4350   -6.5937    0.7081 O.2       1 FMN        -0.6125
      7 C4A         2.6001   -5.2945    1.4253 C.ar      1 FMN         0.2211
      8 N5          2.8818   -4.3956    0.5389 N.2       1 FMN        -0.4286
      9 C5A         2.0834   -3.2454    0.4374 C.ar      1 FMN         0.0170
     10 C6          2.4298   -2.2996   -0.5398 C.ar      1 FMN        -0.0553
     11 C7          1.6851   -1.1351   -0.6992 C.ar      1 FMN        -0.1211
     12 C7M         2.0850   -0.1527   -1.7495 C.3       1 FMN        -0.0435
     13 C8          0.5864   -0.9067    0.1183 C.ar      1 FMN        -0.0173
     14 C8M        -0.2342    0.3332   -0.0271 C.3       1 FMN        -0.0630
     15 C9          0.2330   -1.8421    1.0943 C.ar      1 FMN        -0.1390
     16 C9A         0.9704   -3.0274    1.2749 C.ar      1 FMN         0.1887
     17 N10         0.6547   -4.0033    2.2457 N.pl3     1 FMN        -0.5294
     18 C10         1.4328   -5.1491    2.3626 C.ar      1 FMN         0.6151
     19 C1'        -0.5012   -3.7679    3.1095 C.3       1 FMN         0.1741
     20 C2'        -1.7519   -4.3580    2.4592 C.3       1 FMN         0.1411
     21 O2'        -2.2248   -3.4496    1.4638 O.3       1 FMN        -0.6334
     22 C3'        -2.8727   -4.6164    3.4857 C.3       1 FMN         0.1067
     23 O3'        -2.6151   -5.8358    4.1805 O.3       1 FMN        -0.6301
     24 C4'        -4.2704   -4.7010    2.8434 C.3       1 FMN         0.0813
     25 O4'        -4.5575   -3.4669    2.1826 O.3       1 FMN        -0.6796
     26 C5'        -5.3686   -4.9681    3.8718 C.3       1 FMN         0.1813
     27 O5'        -5.0933   -4.2079    5.0443 O.3       1 FMN        -0.5642
     28 P          -5.5906   -4.7980    6.5022 P.3       1 FMN         1.3127
     29 O1P        -7.1073   -4.9112    6.3793 O.co2     1 FMN        -0.9243
     30 O2P        -5.1268   -3.7331    7.4916 O.co2     1 FMN        -0.9243
     31 O3P        -4.8696   -6.1349    6.6473 O.co2     1 FMN        -0.9243
     32 HN3         3.6607   -8.2239    2.5509 H         1 FMN         0.3334
     33 H6          3.2920   -2.4807   -1.1791 H         1 FMN         0.1447
     34 HM71        1.5822   -0.3820   -2.6964 H         1 FMN         0.0392
     35 HM72        1.8243    0.8717   -1.4550 H         1 FMN         0.0392
     36 HM73        3.1694   -0.1698   -1.9170 H         1 FMN         0.0392
     37 HM81       -1.0476    0.1680   -0.7429 H         1 FMN         0.0535
     38 HM82       -0.6692    0.6350    0.9334 H         1 FMN         0.0535
     39 HM83        0.3769    1.1733   -0.3794 H         1 FMN         0.0535
     40 H9         -0.6349   -1.6256    1.7128 H         1 FMN         0.1971
     41 H1'1       -0.5966   -2.6906    3.2480 H         1 FMN         0.1123
     42 H1'2       -0.2877   -4.2309    4.0717 H         1 FMN         0.1123
     43 H2'        -1.4853   -5.2946    1.9549 H         1 FMN         0.0570
     44 HO2'       -1.5068   -3.3510    0.8207 H         1 FMN         0.4322
     45 H3'        -2.8924   -3.8046    4.2242 H         1 FMN         0.0570
     46 HO3'       -2.5934   -6.5348    3.5094 H         1 FMN         0.4323
     47 H4'        -4.2884   -5.4855    2.0781 H         1 FMN         0.0270
     48 HO4'       -4.5268   -2.7793    2.8642 H         1 FMN         0.4672
     49 H5'1       -6.3506   -4.6593    3.4994 H         1 FMN         0.0181
     50 H5'2       -5.3961   -6.0257    4.1518 H         1 FMN         0.0181
@<TRIPOS>BOND
     1    1    2 ar
     2    1   18 ar
     3    2    3 2
     4    2    4 ar
     5    4    5 ar
     6    4   32 1
     7    5    6 2
     8    5    7 ar
     9    7    8 ar
    10    7   18 ar
    11    8    9 ar
    12    9   10 ar
    13    9   16 ar
    14   10   11 ar
    15   10   33 1
    16   11   12 1
    17   11   13 ar
    18   12   34 1
    19   12   35 1
    20   12   36 1
    21   13   14 1
    22   13   15 ar
    23   14   37 1
    24   14   38 1
    25   14   39 1
    26   15   16 ar
    27   15   40 1
    28   16   17 ar
    29   17   18 ar
    30   17   19 1
    31   19   20 1
    32   19   41 1
    33   19   42 1
    34   20   21 1
    35   20   22 1
    36   20   43 1
    37   21   44 1
    38   22   23 1
    39   22   24 1
    40   22   45 1
    41   23   46 1
    42   24   25 1
    43   24   26 1
    44   24   47 1
    45   25   48 1
    46   26   27 1
    47   26   49 1
    48   26   50 1
    49   27   28 1
    50   28   29 2
    51   28   30 1
    52   28   31 1
@<TRIPOS>SUBSTRUCTURE
     1 FMN         1 GROUP 0 A     ****
@<TRIPOS>MOLECULE
[5-(7,8-dimethyl-2,4-dioxo-benzo[g]pteridin-10-yl)-2,3,4-trihydroxy-pentyl] phosphate
   50    52     1     0     0
SMALL
USER_CHARGES

@<TRIPOS>ATOM
      1 N1          1.2277   -6.1042    3.2212 N.2       1 FMN        -0.6988
      2 C2          2.0186   -7.2293    3.3119 C.ar      1 FMN         0.8536
      3 O2          1.7830   -8.1102    4.1421 O.2       1 FMN        -0.6019
      4 N3          3.1050   -7.3794    2.4494 N.pl3     1 FMN        -0.6223
      5 C4          3.4932   -6.4908    1.4752 C.ar      1 FMN         0.6334
      6 O4          4.4350   -6.5937    0.7081 O.2       1 FMN        -0.6125
      7 C4A         2.6001   -5.2945    1.4253 C.ar      1 FMN         0.2211
      8 N5          2.8818   -4.3956    0.5389 N.2       1 FMN        -0.4286
      9 C5A         2.0834   -3.2454    0.4374 C.ar      1 FMN         0.0170
     10 C6          2.4298   -2.2996   -0.5398 C.ar      1 FMN        -0.0553
     11 C7          1.6851   -1.1351   -0.6992 C.ar      1 FMN        -0.1211
     12 C7M         2.0850   -0.1527   -1.7495 C.3       1 FMN        -0.0435
     13 C8          0.5864   -0.9067    0.1183 C.ar      1 FMN        -0.0173
     14 C8M        -0.2342    0.3332   -0.0271 C.3       1 FMN        -0.0630
     15 C9          0.2330   -1.8421    1.0943 C.ar      1 FMN        -0.1390
     16 C9A         0.9704   -3.0274    1.2749 C.ar      1 FMN         0.1887
     17 N10         0.6547   -4.0033    2.2457 N.pl3     1 FMN        -0.5294
     18 C10         1.4328   -5.1491    2.3626 C.ar      1 FMN         0.6151
     19 C1'        -0.5012   -3.7679    3.1095 C.3       1 FMN         0.1741
     20 C2'        -1.7519   -4.3580    2.4592 C.3       1 FMN         0.1411
     21 O2'        -2.2248   -3.4496    1.4638 O.3       1 FMN        -0.6334
     22 C3'        -2.8727   -4.6164    3.4857 C.3       1 FMN         0.1067
     23 O3'        -2.6151   -5.8358    4.1805 O.3       1 FMN        -0.6301
     24 C4'        -4.2704   -4.7010    2.8434 C.3       1 FMN         0.0813
     25 O4'        -4.1767   -5.4180    1.6109 O.3       1 FMN        -0.6796
     26 C5'        -4.8649   -3.3224    2.5592 C.3       1 FMN         0.1813
     27 O5'        -4.9779   -2.6098    3.7871 O.3       1 FMN        -0.5642
     28 P          -5.5967   -1.0810    3.7583 P.3       1 FMN         1.3127
     29 O1P        -4.6464   -0.2934    2.8612 O.co2     1 FMN        -0.9243
     30 O2P        -5.5601   -0.6569    5.2235 O.co2     1 FMN        -0.9243
     31 O3P        -7.0055   -1.2419    3.1947 O.co2     1 FMN        -0.9243
     32 HN3         3.6607   -8.2239    2.5509 H         1 FMN         0.3334
     33 H6          3.2920   -2.4807   -1.1791 H         1 FMN         0.1447
     34 HM71        1.5822   -0.3820   -2.6964 H         1 FMN         0.0392
     35 HM72        1.8243    0.8717   -1.4550 H         1 FMN         0.0392
     36 HM73        3.1694   -0.1698   -1.9170 H         1 FMN         0.0392
     37 HM81       -1.0476    0.1680   -0.7429 H         1 FMN         0.0535
     38 HM82       -0.6692    0.6350    0.9334 H         1 FMN         0.0535
     39 HM83        0.3769    1.1733   -0.3794 H         1 FMN         0.0535
     40 H9         -0.6349   -1.6256    1.7128 H         1 FMN         0.1971
     41 H1'1       -0.5966   -2.6906    3.2480 H         1 FMN         0.1123
     42 H1'2       -0.2877   -4.2309    4.0717 H         1 FMN         0.1123
     43 H2'        -1.4853   -5.2946    1.9549 H         1 FMN         0.0570
     44 HO2'       -1.5068   -3.3510    0.8207 H         1 FMN         0.4322
     45 H3'        -2.8924   -3.8046    4.2242 H         1 FMN         0.0570
     46 HO3'       -3.3430   -5.9523    4.8098 H         1 FMN         0.4323
     47 H4'        -4.9511   -5.2656    3.4910 H         1 FMN         0.0270
     48 HO4'       -3.8398   -6.2986    1.8330 H         1 FMN         0.4672
     49 H5'1       -4.2215   -2.7373    1.8942 H         1 FMN         0.0181
     50 H5'2       -5.8651   -3.4079    2.1233 H         1 FMN         0.0181
@<TRIPOS>BOND
     1    1    2 ar
     2    1   18 ar
     3    2    3 2
     4    2    4 ar
     5    4    5 ar
     6    4   32 1
     7    5    6 2
     8    5    7 ar
     9    7    8 ar
    10    7   18 ar
    11    8    9 ar
    12    9   10 ar
    13    9   16 ar
    14   10   11 ar
    15   10   33 1
    16   11   12 1
    17   11   13 ar
    18   12   34 1
    19   12   35 1
    20   12   36 1
    21   13   14 1
    22   13   15 ar
    23   14   37 1
    24   14   38 1
    25   14   39 1
    26   15   16 ar
    27   15   40 1
    28   16   17 ar
    29   17   18 ar
    30   17   19 1
    31   19   20 1
    32   19   41 1
    33   19   42 1
    34   20   21 1
    35   20   22 1
    36   20   43 1
    37   21   44 1
    38   22   23 1
    39   22   24 1
    40   22   45 1
    41   23   46 1
    42   24   25 1
    43   24   26 1
    44   24   47 1
    45   25   48 1
    46   26   27 1
    47   26   49 1
    48   26   50 1
    49   27   28 1
    50   28   29 2
    51   28   30 1
    52   28   31 1
@<TRIPOS>SUBSTRUCTURE
     1 FMN         1 GROUP 0 A     ****
@<TRIPOS>MOLECULE
[5-(7,8-dimethyl-2,4-dioxo-benzo[g]pteridin-10-yl)-2,3,4-trihydroxy-pentyl] phosphate
   50    52     1     0     0
SMALL
USER_CHARGES

@<TRIPOS>ATOM
      1 N1          1.2277   -6.1042    3.2212 N.2       1 FMN        -0.6988
      2 C2          2.0186   -7.2293    3.3119 C.ar      1 FMN         0.8536
      3 O2          1.7830   -8.1102    4.1421 O.2       1 FMN        -0.6019
      4 N3          3.1050   -7.3794    2.4494 N.pl3     1 FMN        -0.6223
      5 C4          3.4932   -6.4908    1.4752 C.ar      1 FMN         0.6334
      6 O4          4.4350   -6.5937    0.7081 O.2       1 FMN        -0.6125
      7 C4A         2.6001   -5.2945    1.4253 C.ar      1 FMN         0.2211
      8 N5          2.8818   -4.3956    0.5389 N.2       1 FMN        -0.4286
      9 C5A         2.0834   -3.2454    0.4374 C.ar      1 FMN         0.0170
     10 C6          2.4298   -2.2996   -0.5398 C.ar      1 FMN        -0.0553
     11 C7          1.6851   -1.1351   -0.6992 C.ar      1 FMN        -0.1211
     12 C7M         2.0850   -0.1527   -1.7495 C.3       1 FMN        -0.0435
     13 C8          0.5864   -0.9067    0.1183 C.ar      1 FMN        -0.0173
     14 C8M        -0.2342    0.3332   -0.0271 C.3       1 FMN        -0.0630
     15 C9          0.2330   -1.8421    1.0943 C.ar      1 FMN        -0.1390
     16 C9A         0.9704   -3.0274    1.2749 C.ar      1 FMN         0.1887
     17 N10         0.6547   -4.0033    2.2457 N.pl3     1 FMN        -0.5294
     18 C10         1.4328   -5.1491    2.3626 C.ar      1 FMN         0.6151
     19 C1'        -0.5012   -3.7679    3.1095 C.3       1 FMN         0.1741
     20 C2'        -0.0563   -3.0138    4.3619 C.3       1 FMN         0.1411
     21 O2'         1.2000   -3.5387    4.7929 O.3       1 FMN        -0.6334
     22 C3'        -1.0797   -3.1379    5.5082 C.3       1 FMN         0.1067
     23 O3'        -2.1528   -2.2220    5.2945 O.3       1 FMN        -0.6301
     24 C4'        -0.4673   -2.8644    6.8950 C.3       1 FMN         0.0813
     25 O4'         0.5797   -3.8060    7.1386 O.3       1 FMN        -0.6796
     26 C5'        -1.4959   -2.9806    8.0190 C.3       1 FMN         0.1813
     27 O5'        -2.0301   -4.3008    8.0168 O.3       1 FMN        -0.5642
     28 P          -1.8451   -5.2292    9.3677 P.3       1 FMN         1.3127
     29 O1P        -0.3353   -5.3498    9.5532 O.co2     1 FMN        -0.9243
     30 O2P        -2.5300   -6.5400    8.9926 O.co2     1 FMN        -0.9243
     31 O3P        -2.5548   -4.4532   10.4734 O.co2     1 FMN        -0.9243
     32 HN3         3.6607   -8.2239    2.5509 H         1 FMN         0.3334
     33 H6          3.2920   -2.4807   -1.1791 H         1 FMN         0.1447
     34 HM71        1.5822   -0.3820   -2.6964 H         1 FMN         0.0392
     35 HM72        1.8243    0.8717   -1.4550 H         1 FMN         0.0392
     36 HM73        3.1694   -0.1698   -1.9170 H         1 FMN         0.0392
     37 HM81       -1.0476    0.1680   -0.7429 H         1 FMN         0.0535
     38 HM82       -0.6692    0.6350    0.9334 H         1 FMN         0.0535
     39 HM83        0.3769    1.1733   -0.3794 H         1 FMN         0.0535
     40 H9         -0.6349   -1.6256    1.7128 H         1 FMN         0.1971
     41 H1'1       -0.9287   -4.7387    3.3617 H         1 FMN         0.1123
     42 H1'2       -1.2289   -3.2002    2.5315 H         1 FMN         0.1123
     43 H2'         0.0940   -1.9572    4.1093 H         1 FMN         0.0570
     44 HO2'        1.4481   -3.0384    5.5846 H         1 FMN         0.4322
     45 H3'        -1.4989   -4.1521    5.5217 H         1 FMN         0.0570
     46 HO3'       -2.5540   -2.4626    4.4456 H         1 FMN         0.4323
     47 H4'        -0.0125   -1.8673    6.9181 H         1 FMN         0.0270
     48 HO4'        0.9342   -3.5984    8.0158 H         1 FMN         0.4672
     49 H5'1       -1.0400   -2.8089    8.9994 H         1 FMN         0.0181
     50 H5'2       -2.3229   -2.2797    7.8690 H         1 FMN         0.0181
@<TRIPOS>BOND
     1    1    2 ar
     2    1   18 ar
     3    2    3 2
     4    2    4 ar
     5    4    5 ar
     6    4   32 1
     7    5    6 2
     8    5    7 ar
     9    7    8 ar
    10    7   18 ar
    11    8    9 ar
    12    9   10 ar
    13    9   16 ar
    14   10   11 ar
    15   10   33 1
    16   11   12 1
    17   11   13 ar
    18   12   34 1
    19   12   35 1
    20   12   36 1
    21   13   14 1
    22   13   15 ar
    23   14   37 1
    24   14   38 1
    25   14   39 1
    26   15   16 ar
    27   15   40 1
    28   16   17 ar
    29   17   18 ar
    30   17   19 1
    31   19   20 1
    32   19   41 1
    33   19   42 1
    34   20   21 1
    35   20   22 1
    36   20   43 1
    37   21   44 1
    38   22   23 1
    39   22   24 1
    40   22   45 1
    41   23   46 1
    42   24   25 1
    43   24   26 1
    44   24   47 1
    45   25   48 1
    46   26   27 1
    47   26   49 1
    48   26   50 1
    49   27   28 1
    50   28   29 2
    51   28   30 1
    52   28   31 1
@<TRIPOS>SUBSTRUCTURE
     1 FMN         1 GROUP 0 A     ****
@<TRIPOS>MOLECULE
[5-(7,8-dimethyl-2,4-dioxo-benzo[g]pteridin-10-yl)-2,3,4-trihydroxy-pentyl] phosphate
   50    52     1     0     0
SMALL
USER_CHARGES

@<TRIPOS>ATOM
      1 N1          1.2277   -6.1042    3.2212 N.2       1 FMN        -0.6988
      2 C2          2.0186   -7.2293    3.3119 C.ar      1 FMN         0.8536
      3 O2          1.7830   -8.1102    4.1421 O.2       1 FMN        -0.6019
      4 N3          3.1050   -7.3794    2.4494 N.pl3     1 FMN        -0.6223
      5 C4          3.4932   -6.4908    1.4752 C.ar      1 FMN         0.6334
      6 O4          4.4350   -6.5937    0.7081 O.2       1 FMN        -0.6125
      7 C4A         2.6001   -5.2945    1.4253 C.ar      1 FMN         0.2211
      8 N5          2.8818   -4.3956    0.5389 N.2       1 FMN        -0.4286
      9 C5A         2.0834   -3.2454    0.4374 C.ar      1 FMN         0.0170
     10 C6          2.4298   -2.2996   -0.5398 C.ar      1 FMN        -0.0553
     11 C7          1.6851   -1.1351   -0.6992 C.ar      1 FMN        -0.1211
     12 C7M         2.0850   -0.1527   -1.7495 C.3       1 FMN        -0.0435
     13 C8          0.5864   -0.9067    0.1183 C.ar      1 FMN        -0.0173
     14 C8M        -0.2342    0.3332   -0.0271 C.3       1 FMN        -0.0630
     15 C9          0.2330   -1.8421    1.0943 C.ar      1 FMN        -0.1390
     16 C9A         0.9704   -3.0274    1.2749 C.ar      1 FMN         0.1887
     17 N10         0.6547   -4.0033    2.2457 N.pl3     1 FMN        -0.5294
     18 C10         1.4328   -5.1491    2.3626 C.ar      1 FMN         0.6151
     19 C1'        -0.5012   -3.7679    3.1095 C.3       1 FMN         0.1741
     20 C2'        -1.7519   -4.3580    2.4592 C.3       1 FMN         0.1411
     21 O2'        -2.2248   -3.4496    1.4638 O.3       1 FMN        -0.6334
     22 C3'        -2.8727   -4.6164    3.4857 C.3       1 FMN         0.1067
     23 O3'        -3.8011   -5.5609    2.9547 O.3       1 FMN        -0.6301
     24 C4'        -3.6390   -3.3382    3.8759 C.3       1 FMN         0.0813
     25 O4'        -4.2372   -2.7755    2.7065 O.3       1 FMN        -0.6796
     26 C5'        -2.7310   -2.2860    4.5111 C.3       1 FMN         0.1813
     27 O5'        -3.5357   -1.3711    5.2484 O.3       1 FMN        -0.5642
     28 P          -3.5065    0.2233    4.8262 P.3       1 FMN         1.3127
     29 O1P        -2.0521    0.6475    5.0086 O.co2     1 FMN        -0.9243
     30 O2P        -4.4695    0.8695    5.8177 O.co2     1 FMN        -0.9243
     31 O3P        -3.9936    0.2521    3.3805 O.co2     1 FMN        -0.9243
     32 HN3         3.6607   -8.2239    2.5509 H         1 FMN         0.3334
     33 H6          3.2920   -2.4807   -1.1791 H         1 FMN         0.1447
     34 HM71        1.5822   -0.3820   -2.6964 H         1 FMN         0.0392
     35 HM72        1.8243    0.8717   -1.4550 H         1 FMN         0.0392
     36 HM73        3.1694   -0.1698   -1.9170 H         1 FMN         0.0392
     37 HM81       -1.0476    0.1680   -0.7429 H         1 FMN         0.0535
     38 HM82       -0.6692    0.6350    0.9334 H         1 FMN         0.0535
     39 HM83        0.3769    1.1733   -0.3794 H         1 FMN         0.0535
     40 H9         -0.6349   -1.6256    1.7128 H         1 FMN         0.1971
     41 H1'1       -0.5966   -2.6906    3.2480 H         1 FMN         0.1123
     42 H1'2       -0.2877   -4.2309    4.0717 H         1 FMN         0.1123
     43 H2'        -1.4853   -5.2946    1.9549 H         1 FMN         0.0570
     44 HO2'       -2.4249   -2.6205    1.9234 H         1 FMN         0.4322
     45 H3'        -2.4442   -5.0425    4.4020 H         1 FMN         0.0570
     46 HO3'       -3.2987   -6.3713    2.7804 H         1 FMN         0.4323
     47 H4'        -4.4544   -3.5817    4.5668 H         1 FMN         0.0270
     48 HO4'       -4.8375   -3.4501    2.3561 H         1 FMN         0.4672
     49 H5'1       -2.0194   -2.7388    5.2090 H         1 FMN         0.0181
     50 H5'2       -2.1890   -1.7212    3.7463 H         1 FMN         0.0181
@<TRIPOS>BOND
     1    1    2 ar
     2    1   18 ar
     3    2    3 2
     4    2    4 ar
     5    4    5 ar
     6    4   32 1
     7    5    6 2
     8    5    7 ar
     9    7    8 ar
    10    7   18 ar
    11    8    9 ar
    12    9   10 ar
    13    9   16 ar
    14   10   11 ar
    15   10   33 1
    16   11   12 1
    17   11   13 ar
    18   12   34 1
    19   12   35 1
    20   12   36 1
    21   13   14 1
    22   13   15 ar
    23   14   37 1
    24   14   38 1
    25   14   39 1
    26   15   16 ar
    27   15   40 1
    28   16   17 ar
    29   17   18 ar
    30   17   19 1
    31   19   20 1
    32   19   41 1
    33   19   42 1
    34   20   21 1
    35   20   22 1
    36   20   43 1
    37   21   44 1
    38   22   23 1
    39   22   24 1
    40   22   45 1
    41   23   46 1
    42   24   25 1
    43   24   26 1
    44   24   47 1
    45   25   48 1
    46   26   27 1
    47   26   49 1
    48   26   50 1
    49   27   28 1
    50   28   29 2
    51   28   30 1
    52   28   31 1
@<TRIPOS>SUBSTRUCTURE
     1 FMN         1 GROUP 0 A     ****
@<TRIPOS>MOLECULE
[5-(7,8-dimethyl-2,4-dioxo-benzo[g]pteridin-10-yl)-2,3,4-trihydroxy-pentyl] phosphate
   50    52     1     0     0
SMALL
USER_CHARGES

@<TRIPOS>ATOM
      1 N1          1.2277   -6.1042    3.2212 N.2       1 FMN        -0.6988
      2 C2          2.0186   -7.2293    3.3119 C.ar      1 FMN         0.8536
      3 O2          1.7830   -8.1102    4.1421 O.2       1 FMN        -0.6019
      4 N3          3.1050   -7.3794    2.4494 N.pl3     1 FMN        -0.6223
      5 C4          3.4932   -6.4908    1.4752 C.ar      1 FMN         0.6334
      6 O4          4.4350   -6.5937    0.7081 O.2       1 FMN        -0.6125
      7 C4A         2.6001   -5.2945    1.4253 C.ar      1 FMN         0.2211
      8 N5          2.8818   -4.3956    0.5389 N.2       1 FMN        -0.4286
      9 C5A         2.0834   -3.2454    0.4374 C.ar      1 FMN         0.0170
     10 C6          2.4298   -2.2996   -0.5398 C.ar      1 FMN        -0.0553
     11 C7          1.6851   -1.1351   -0.6992 C.ar      1 FMN        -0.1211
     12 C7M         2.0850   -0.1527   -1.7495 C.3       1 FMN        -0.0435
     13 C8          0.5864   -0.9067    0.1183 C.ar      1 FMN        -0.0173
     14 C8M        -0.2342    0.3332   -0.0271 C.3       1 FMN        -0.0630
     15 C9          0.2330   -1.8421    1.0943 C.ar      1 FMN        -0.1390
     16 C9A         0.9704   -3.0274    1.2749 C.ar      1 FMN         0.1887
     17 N10         0.6547   -4.0033    2.2457 N.pl3     1 FMN        -0.5294
     18 C10         1.4328   -5.1491    2.3626 C.ar      1 FMN         0.6151
     19 C1'        -0.5012   -3.7679    3.1095 C.3       1 FMN         0.1741
     20 C2'        -1.7519   -4.3580    2.4592 C.3       1 FMN         0.1411
     21 O2'        -2.2248   -3.4496    1.4638 O.3       1 FMN        -0.6334
     22 C3'        -2.8727   -4.6164    3.4857 C.3       1 FMN         0.1067
     23 O3'        -2.3099   -5.1343    4.6903 O.3       1 FMN        -0.6301
     24 C4'        -3.9405   -5.6032    2.9765 C.3       1 FMN         0.0813
     25 O4'        -3.2983   -6.6582    2.2578 O.3       1 FMN        -0.6796
     26 C5'        -4.9574   -4.9349    2.0523 C.3       1 FMN         0.1813
     27 O5'        -4.2699   -4.3974    0.9267 O.3       1 FMN        -0.5642
     28 P          -5.0664   -4.3067   -0.5149 P.3       1 FMN         1.3127
     29 O1P        -5.4293   -5.7504   -0.8504 O.co2     1 FMN        -0.9243
     30 O2P        -4.0310   -3.6939   -1.4532 O.co2     1 FMN        -0.9243
     31 O3P        -6.2657   -3.4040   -0.2409 O.co2     1 FMN        -0.9243
     32 HN3         3.6607   -8.2239    2.5509 H         1 FMN         0.3334
     33 H6          3.2920   -2.4807   -1.1791 H         1 FMN         0.1447
     34 HM71        1.5822   -0.3820   -2.6964 H         1 FMN         0.0392
     35 HM72        1.8243    0.8717   -1.4550 H         1 FMN         0.0392
     36 HM73        3.1694   -0.1698   -1.9170 H         1 FMN         0.0392
     37 HM81       -1.0476    0.1680   -0.7429 H         1 FMN         0.0535
     38 HM82       -0.6692    0.6350    0.9334 H         1 FMN         0.0535
     39 HM83        0.3769    1.1733   -0.3794 H         1 FMN         0.0535
     40 H9         -0.6349   -1.6256    1.7128 H         1 FMN         0.1971
     41 H1'1       -0.5966   -2.6906    3.2480 H         1 FMN         0.1123
     42 H1'2       -0.2877   -4.2309    4.0717 H         1 FMN         0.1123
     43 H2'        -1.4853   -5.2946    1.9549 H         1 FMN         0.0570
     44 HO2'       -2.4249   -2.6205    1.9234 H         1 FMN         0.4322
     45 H3'        -3.3777   -3.6724    3.7276 H         1 FMN         0.0570
     46 HO3'       -1.8630   -5.9606    4.4514 H         1 FMN         0.4323
     47 H4'        -4.4637   -6.0643    3.8221 H         1 FMN         0.0270
     48 HO4'       -4.0027   -7.2515    1.9577 H         1 FMN         0.4672
     49 H5'1       -5.6935   -5.6540    1.6790 H         1 FMN         0.0181
     50 H5'2       -5.4701   -4.1127    2.5611 H         1 FMN         0.0181
@<TRIPOS>BOND
     1    1    2 ar
     2    1   18 ar
     3    2    3 2
     4    2    4 ar
     5    4    5 ar
     6    4   32 1
     7    5    6 2
     8    5    7 ar
     9    7    8 ar
    10    7   18 ar
    11    8    9 ar
    12    9   10 ar
    13    9   16 ar
    14   10   11 ar
    15   10   33 1
    16   11   12 1
    17   11   13 ar
    18   12   34 1
    19   12   35 1
    20   12   36 1
    21   13   14 1
    22   13   15 ar
    23   14   37 1
    24   14   38 1
    25   14   39 1
    26   15   16 ar
    27   15   40 1
    28   16   17 ar
    29   17   18 ar
    30   17   19 1
    31   19   20 1
    32   19   41 1
    33   19   42 1
    34   20   21 1
    35   20   22 1
    36   20   43 1
    37   21   44 1
    38   22   23 1
    39   22   24 1
    40   22   45 1
    41   23   46 1
    42   24   25 1
    43   24   26 1
    44   24   47 1
    45   25   48 1
    46   26   27 1
    47   26   49 1
    48   26   50 1
    49   27   28 1
    50   28   29 2
    51   28   30 1
    52   28   31 1
@<TRIPOS>SUBSTRUCTURE
     1 FMN         1 GROUP 0 A     ****
@<TRIPOS>MOLECULE
[5-(7,8-dimethyl-2,4-dioxo-benzo[g]pteridin-10-yl)-2,3,4-trihydroxy-pentyl] phosphate
   50    52     1     0     0
SMALL
USER_CHARGES

@<TRIPOS>ATOM
      1 N1          1.2277   -6.1042    3.2212 N.2       1 FMN        -0.6988
      2 C2          2.0186   -7.2293    3.3119 C.ar      1 FMN         0.8536
      3 O2          1.7830   -8.1102    4.1421 O.2       1 FMN        -0.6019
      4 N3          3.1050   -7.3794    2.4494 N.pl3     1 FMN        -0.6223
      5 C4          3.4932   -6.4908    1.4752 C.ar      1 FMN         0.6334
      6 O4          4.4350   -6.5937    0.7081 O.2       1 FMN        -0.6125
      7 C4A         2.6001   -5.2945    1.4253 C.ar      1 FMN         0.2211
      8 N5          2.8818   -4.3956    0.5389 N.2       1 FMN        -0.4286
      9 C5A         2.0834   -3.2454    0.4374 C.ar      1 FMN         0.0170
     10 C6          2.4298   -2.2996   -0.5398 C.ar      1 FMN        -0.0553
     11 C7          1.6851   -1.1351   -0.6992 C.ar      1 FMN        -0.1211
     12 C7M         2.0850   -0.1527   -1.7495 C.3       1 FMN        -0.0435
     13 C8          0.5864   -0.9067    0.1183 C.ar      1 FMN        -0.0173
     14 C8M        -0.2342    0.3332   -0.0271 C.3       1 FMN        -0.0630
     15 C9          0.2330   -1.8421    1.0943 C.ar      1 FMN        -0.1390
     16 C9A         0.9704   -3.0274    1.2749 C.ar      1 FMN         0.1887
     17 N10         0.6547   -4.0033    2.2457 N.pl3     1 FMN        -0.5294
     18 C10         1.4328   -5.1491    2.3626 C.ar      1 FMN         0.6151
     19 C1'        -0.5012   -3.7679    3.1095 C.3       1 FMN         0.1741
     20 C2'        -1.7519   -4.3580    2.4592 C.3       1 FMN         0.1411
     21 O2'        -1.7067   -4.0980    1.0556 O.3       1 FMN        -0.6334
     22 C3'        -3.0471   -3.7617    3.0455 C.3       1 FMN         0.1067
     23 O3'        -3.0636   -2.3505    2.8353 O.3       1 FMN        -0.6301
     24 C4'        -3.2091   -4.0374    4.5525 C.3       1 FMN         0.0813
     25 O4'        -4.5838   -3.8838    4.9114 O.3       1 FMN        -0.6796
     26 C5'        -2.3742   -3.0884    5.4111 C.3       1 FMN         0.1813
     27 O5'        -2.5808   -3.4098    6.7830 O.3       1 FMN        -0.5642
     28 P          -2.4642   -2.2037    7.9024 P.3       1 FMN         1.3127
     29 O1P        -1.0359   -1.6842    7.7671 O.co2     1 FMN        -0.9243
     30 O2P        -2.7416   -2.9178    9.2219 O.co2     1 FMN        -0.9243
     31 O3P        -3.5399   -1.1976    7.5040 O.co2     1 FMN        -0.9243
     32 HN3         3.6607   -8.2239    2.5509 H         1 FMN         0.3334
     33 H6          3.2920   -2.4807   -1.1791 H         1 FMN         0.1447
     34 HM71        1.5822   -0.3820   -2.6964 H         1 FMN         0.0392
     35 HM72        1.8243    0.8717   -1.4550 H         1 FMN         0.0392
     36 HM73        3.1694   -0.1698   -1.9170 H         1 FMN         0.0392
     37 HM81       -1.0476    0.1680   -0.7429 H         1 FMN         0.0535
     38 HM82       -0.6692    0.6350    0.9334 H         1 FMN         0.0535
     39 HM83        0.3769    1.1733   -0.3794 H         1 FMN         0.0535
     40 H9         -0.6349   -1.6256    1.7128 H         1 FMN         0.1971
     41 H1'1       -0.5966   -2.6906    3.2480 H         1 FMN         0.1123
     42 H1'2       -0.2877   -4.2309    4.0717 H         1 FMN         0.1123
     43 H2'        -1.7472   -5.4461    2.5961 H         1 FMN         0.0570
     44 HO2'       -0.9027   -4.5253    0.7244 H         1 FMN         0.4322
     45 H3'        -3.9172   -4.1899    2.5315 H         1 FMN         0.0570
     46 HO3'       -3.0242   -2.2154    1.8763 H         1 FMN         0.4323
     47 H4'        -2.9330   -5.0735    4.7796 H         1 FMN         0.0270
     48 HO4'       -4.8213   -2.9699    4.6954 H         1 FMN         0.4672
     49 H5'1       -1.3048   -3.1950    5.2029 H         1 FMN         0.0181
     50 H5'2       -2.6781   -2.0484    5.2567 H         1 FMN         0.0181
@<TRIPOS>BOND
     1    1    2 ar
     2    1   18 ar
     3    2    3 2
     4    2    4 ar
     5    4    5 ar
     6    4   32 1
     7    5    6 2
     8    5    7 ar
     9    7    8 ar
    10    7   18 ar
    11    8    9 ar
    12    9   10 ar
    13    9   16 ar
    14   10   11 ar
    15   10   33 1
    16   11   12 1
    17   11   13 ar
    18   12   34 1
    19   12   35 1
    20   12   36 1
    21   13   14 1
    22   13   15 ar
    23   14   37 1
    24   14   38 1
    25   14   39 1
    26   15   16 ar
    27   15   40 1
    28   16   17 ar
    29   17   18 ar
    30   17   19 1
    31   19   20 1
    32   19   41 1
    33   19   42 1
    34   20   21 1
    35   20   22 1
    36   20   43 1
    37   21   44 1
    38   22   23 1
    39   22   24 1
    40   22   45 1
    41   23   46 1
    42   24   25 1
    43   24   26 1
    44   24   47 1
    45   25   48 1
    46   26   27 1
    47   26   49 1
    48   26   50 1
    49   27   28 1
    50   28   29 2
    51   28   30 1
    52   28   31 1
@<TRIPOS>SUBSTRUCTURE
     1 FMN         1 GROUP 0 A     ****
@<TRIPOS>MOLECULE
[5-(7,8-dimethyl-2,4-dioxo-benzo[g]pteridin-10-yl)-2,3,4-trihydroxy-pentyl] phosphate
   50    52     1     0     0
SMALL
USER_CHARGES

@<TRIPOS>ATOM
      1 N1          1.2277   -6.1042    3.2212 N.2       1 FMN        -0.6988
      2 C2          2.0186   -7.2293    3.3119 C.ar      1 FMN         0.8536
      3 O2          1.7830   -8.1102    4.1421 O.2       1 FMN        -0.6019
      4 N3          3.1050   -7.3794    2.4494 N.pl3     1 FMN        -0.6223
      5 C4          3.4932   -6.4908    1.4752 C.ar      1 FMN         0.6334
      6 O4          4.4350   -6.5937    0.7081 O.2       1 FMN        -0.6125
      7 C4A         2.6001   -5.2945    1.4253 C.ar      1 FMN         0.2211
      8 N5          2.8818   -4.3956    0.5389 N.2       1 FMN        -0.4286
      9 C5A         2.0834   -3.2454    0.4374 C.ar      1 FMN         0.0170
     10 C6          2.4298   -2.2996   -0.5398 C.ar      1 FMN        -0.0553
     11 C7          1.6851   -1.1351   -0.6992 C.ar      1 FMN        -0.1211
     12 C7M         2.0850   -0.1527   -1.7495 C.3       1 FMN        -0.0435
     13 C8          0.5864   -0.9067    0.1183 C.ar      1 FMN        -0.0173
     14 C8M        -0.2342    0.3332   -0.0271 C.3       1 FMN        -0.0630
     15 C9          0.2330   -1.8421    1.0943 C.ar      1 FMN        -0.1390
     16 C9A         0.9704   -3.0274    1.2749 C.ar      1 FMN         0.1887
     17 N10         0.6547   -4.0033    2.2457 N.pl3     1 FMN        -0.5294
     18 C10         1.4328   -5.1491    2.3626 C.ar      1 FMN         0.6151
     19 C1'        -0.5012   -3.7679    3.1095 C.3       1 FMN         0.1741
     20 C2'        -0.0563   -3.0138    4.3619 C.3       1 FMN         0.1411
     21 O2'         0.5241   -3.9440    5.2770 O.3       1 FMN        -0.6334
     22 C3'        -1.2298   -2.2882    5.0499 C.3       1 FMN         0.1067
     23 O3'        -0.8896   -2.0051    6.4064 O.3       1 FMN        -0.6301
     24 C4'        -2.5372   -3.1026    5.0293 C.3       1 FMN         0.0813
     25 O4'        -2.9116   -3.3530    3.6732 O.3       1 FMN        -0.6796
     26 C5'        -3.6873   -2.3751    5.7242 C.3       1 FMN         0.1813
     27 O5'        -4.8518   -3.1925    5.6604 O.3       1 FMN        -0.5642
     28 P          -6.1892   -2.6027    4.8958 P.3       1 FMN         1.3127
     29 O1P        -6.5593   -1.3439    5.6747 O.co2     1 FMN        -0.9243
     30 O2P        -7.2024   -3.7355    5.0310 O.co2     1 FMN        -0.9243
     31 O3P        -5.7356   -2.3447    3.4619 O.co2     1 FMN        -0.9243
     32 HN3         3.6607   -8.2239    2.5509 H         1 FMN         0.3334
     33 H6          3.2920   -2.4807   -1.1791 H         1 FMN         0.1447
     34 HM71        1.5822   -0.3820   -2.6964 H         1 FMN         0.0392
     35 HM72        1.8243    0.8717   -1.4550 H         1 FMN         0.0392
     36 HM73        3.1694   -0.1698   -1.9170 H         1 FMN         0.0392
     37 HM81       -1.0476    0.1680   -0.7429 H         1 FMN         0.0535
     38 HM82       -0.6692    0.6350    0.9334 H         1 FMN         0.0535
     39 HM83        0.3769    1.1733   -0.3794 H         1 FMN         0.0535
     40 H9         -0.6349   -1.6256    1.7128 H         1 FMN         0.1971
     41 H1'1       -0.9287   -4.7387    3.3617 H         1 FMN         0.1123
     42 H1'2       -1.2289   -3.2002    2.5315 H         1 FMN         0.1123
     43 H2'         0.7199   -2.2895    4.0870 H         1 FMN         0.0570
     44 HO2'        0.7926   -3.4314    6.0542 H         1 FMN         0.4322
     45 H3'        -1.4222   -1.3335    4.5438 H         1 FMN         0.0570
     46 HO3'       -0.1021   -1.4406    6.3799 H         1 FMN         0.4323
     47 H4'        -2.3828   -4.0785    5.5040 H         1 FMN         0.0270
     48 HO4'       -3.0333   -2.4856    3.2596 H         1 FMN         0.4672
     49 H5'1       -3.4670   -2.1936    6.7810 H         1 FMN         0.0181
     50 H5'2       -3.9108   -1.4268    5.2259 H         1 FMN         0.0181
@<TRIPOS>BOND
     1    1    2 ar
     2    1   18 ar
     3    2    3 2
     4    2    4 ar
     5    4    5 ar
     6    4   32 1
     7    5    6 2
     8    5    7 ar
     9    7    8 ar
    10    7   18 ar
    11    8    9 ar
    12    9   10 ar
    13    9   16 ar
    14   10   11 ar
    15   10   33 1
    16   11   12 1
    17   11   13 ar
    18   12   34 1
    19   12   35 1
    20   12   36 1
    21   13   14 1
    22   13   15 ar
    23   14   37 1
    24   14   38 1
    25   14   39 1
    26   15   16 ar
    27   15   40 1
    28   16   17 ar
    29   17   18 ar
    30   17   19 1
    31   19   20 1
    32   19   41 1
    33   19   42 1
    34   20   21 1
    35   20   22 1
    36   20   43 1
    37   21   44 1
    38   22   23 1
    39   22   24 1
    40   22   45 1
    41   23   46 1
    42   24   25 1
    43   24   26 1
    44   24   47 1
    45   25   48 1
    46   26   27 1
    47   26   49 1
    48   26   50 1
    49   27   28 1
    50   28   29 2
    51   28   30 1
    52   28   31 1
@<TRIPOS>SUBSTRUCTURE
     1 FMN         1 GROUP 0 A     ****
@<TRIPOS>MOLECULE
[5-(7,8-dimethyl-2,4-dioxo-benzo[g]pteridin-10-yl)-2,3,4-trihydroxy-pentyl] phosphate
   50    52     1     0     0
SMALL
USER_CHARGES

@<TRIPOS>ATOM
      1 N1          1.2277   -6.1042    3.2212 N.2       1 FMN        -0.6988
      2 C2          2.0186   -7.2293    3.3119 C.ar      1 FMN         0.8536
      3 O2          1.7830   -8.1102    4.1421 O.2       1 FMN        -0.6019
      4 N3          3.1050   -7.3794    2.4494 N.pl3     1 FMN        -0.6223
      5 C4          3.4932   -6.4908    1.4752 C.ar      1 FMN         0.6334
      6 O4          4.4350   -6.5937    0.7081 O.2       1 FMN        -0.6125
      7 C4A         2.6001   -5.2945    1.4253 C.ar      1 FMN         0.2211
      8 N5          2.8818   -4.3956    0.5389 N.2       1 FMN        -0.4286
      9 C5A         2.0834   -3.2454    0.4374 C.ar      1 FMN         0.0170
     10 C6          2.4298   -2.2996   -0.5398 C.ar      1 FMN        -0.0553
     11 C7          1.6851   -1.1351   -0.6992 C.ar      1 FMN        -0.1211
     12 C7M         2.0850   -0.1527   -1.7495 C.3       1 FMN        -0.0435
     13 C8          0.5864   -0.9067    0.1183 C.ar      1 FMN        -0.0173
     14 C8M        -0.2342    0.3332   -0.0271 C.3       1 FMN        -0.0630
     15 C9          0.2330   -1.8421    1.0943 C.ar      1 FMN        -0.1390
     16 C9A         0.9704   -3.0274    1.2749 C.ar      1 FMN         0.1887
     17 N10         0.6547   -4.0033    2.2457 N.pl3     1 FMN        -0.5294
     18 C10         1.4328   -5.1491    2.3626 C.ar      1 FMN         0.6151
     19 C1'        -0.5012   -3.7679    3.1095 C.3       1 FMN         0.1741
     20 C2'        -0.0563   -3.0138    4.3619 C.3       1 FMN         0.1411
     21 O2'         1.2000   -3.5387    4.7929 O.3       1 FMN        -0.6334
     22 C3'        -1.0797   -3.1379    5.5082 C.3       1 FMN         0.1067
     23 O3'        -2.4029   -3.0494    4.9816 O.3       1 FMN        -0.6301
     24 C4'        -0.9066   -2.0553    6.5904 C.3       1 FMN         0.0813
     25 O4'        -0.6047   -0.8083    5.9613 O.3       1 FMN        -0.6796
     26 C5'         0.2158   -2.3879    7.5725 C.3       1 FMN         0.1813
     27 O5'         1.4383   -2.5001    6.8505 O.3       1 FMN        -0.5642
     28 P           2.5998   -3.5239    7.4195 P.3       1 FMN         1.3127
     29 O1P         2.9395   -2.9932    8.8091 O.co2     1 FMN        -0.9243
     30 O2P         3.7303   -3.3747    6.4057 O.co2     1 FMN        -0.9243
     31 O3P         1.9412   -4.9004    7.4153 O.co2     1 FMN        -0.9243
     32 HN3         3.6607   -8.2239    2.5509 H         1 FMN         0.3334
     33 H6          3.2920   -2.4807   -1.1791 H         1 FMN         0.1447
     34 HM71        1.5822   -0.3820   -2.6964 H         1 FMN         0.0392
     35 HM72        1.8243    0.8717   -1.4550 H         1 FMN         0.0392
     36 HM73        3.1694   -0.1698   -1.9170 H         1 FMN         0.0392
     37 HM81       -1.0476    0.1680   -0.7429 H         1 FMN         0.0535
     38 HM82       -0.6692    0.6350    0.9334 H         1 FMN         0.0535
     39 HM83        0.3769    1.1733   -0.3794 H         1 FMN         0.0535
     40 H9         -0.6349   -1.6256    1.7128 H         1 FMN         0.1971
     41 H1'1       -0.9287   -4.7387    3.3617 H         1 FMN         0.1123
     42 H1'2       -1.2289   -3.2002    2.5315 H         1 FMN         0.1123
     43 H2'         0.0940   -1.9572    4.1093 H         1 FMN         0.0570
     44 HO2'        1.0537   -4.4779    4.9808 H         1 FMN         0.4322
     45 H3'        -0.9742   -4.1164    5.9939 H         1 FMN         0.0570
     46 HO3'       -2.4697   -2.1836    4.5511 H         1 FMN         0.4323
     47 H4'        -1.8443   -1.9171    7.1410 H         1 FMN         0.0270
     48 HO4'       -1.3544   -0.6070    5.3818 H         1 FMN         0.4672
     49 H5'1        0.3430   -1.5975    8.3191 H         1 FMN         0.0181
     50 H5'2        0.0292   -3.3425    8.0741 H         1 FMN         0.0181
@<TRIPOS>BOND
     1    1    2 ar
     2    1   18 ar
     3    2    3 2
     4    2    4 ar
     5    4    5 ar
     6    4   32 1
     7    5    6 2
     8    5    7 ar
     9    7    8 ar
    10    7   18 ar
    11    8    9 ar
    12    9   10 ar
    13    9   16 ar
    14   10   11 ar
    15   10   33 1
    16   11   12 1
    17   11   13 ar
    18   12   34 1
    19   12   35 1
    20   12   36 1
    21   13   14 1
    22   13   15 ar
    23   14   37 1
    24   14   38 1
    25   14   39 1
    26   15   16 ar
    27   15   40 1
    28   16   17 ar
    29   17   18 ar
    30   17   19 1
    31   19   20 1
    32   19   41 1
    33   19   42 1
    34   20   21 1
    35   20   22 1
    36   20   43 1
    37   21   44 1
    38   22   23 1
    39   22   24 1
    40   22   45 1
    41   23   46 1
    42   24   25 1
    43   24   26 1
    44   24   47 1
    45   25   48 1
    46   26   27 1
    47   26   49 1
    48   26   50 1
    49   27   28 1
    50   28   29 2
    51   28   30 1
    52   28   31 1
@<TRIPOS>SUBSTRUCTURE
     1 FMN         1 GROUP 0 A     ****
@<TRIPOS>MOLECULE
[5-(7,8-dimethyl-2,4-dioxo-benzo[g]pteridin-10-yl)-2,3,4-trihydroxy-pentyl] phosphate
   50    52     1     0     0
SMALL
USER_CHARGES

@<TRIPOS>ATOM
      1 N1          1.2277   -6.1042    3.2212 N.2       1 FMN        -0.6988
      2 C2          2.0186   -7.2293    3.3119 C.ar      1 FMN         0.8536
      3 O2          1.7830   -8.1102    4.1421 O.2       1 FMN        -0.6019
      4 N3          3.1050   -7.3794    2.4494 N.pl3     1 FMN        -0.6223
      5 C4          3.4932   -6.4908    1.4752 C.ar      1 FMN         0.6334
      6 O4          4.4350   -6.5937    0.7081 O.2       1 FMN        -0.6125
      7 C4A         2.6001   -5.2945    1.4253 C.ar      1 FMN         0.2211
      8 N5          2.8818   -4.3956    0.5389 N.2       1 FMN        -0.4286
      9 C5A         2.0834   -3.2454    0.4374 C.ar      1 FMN         0.0170
     10 C6          2.4298   -2.2996   -0.5398 C.ar      1 FMN        -0.0553
     11 C7          1.6851   -1.1351   -0.6992 C.ar      1 FMN        -0.1211
     12 C7M         2.0850   -0.1527   -1.7495 C.3       1 FMN        -0.0435
     13 C8          0.5864   -0.9067    0.1183 C.ar      1 FMN        -0.0173
     14 C8M        -0.2342    0.3332   -0.0271 C.3       1 FMN        -0.0630
     15 C9          0.2330   -1.8421    1.0943 C.ar      1 FMN        -0.1390
     16 C9A         0.9704   -3.0274    1.2749 C.ar      1 FMN         0.1887
     17 N10         0.6547   -4.0033    2.2457 N.pl3     1 FMN        -0.5294
     18 C10         1.4328   -5.1491    2.3626 C.ar      1 FMN         0.6151
     19 C1'        -0.5012   -3.7679    3.1095 C.3       1 FMN         0.1741
     20 C2'        -1.7519   -4.3580    2.4592 C.3       1 FMN         0.1411
     21 O2'        -1.7067   -4.0980    1.0556 O.3       1 FMN        -0.6334
     22 C3'        -3.0471   -3.7617    3.0455 C.3       1 FMN         0.1067
     23 O3'        -4.1434   -4.6328    2.7708 O.3       1 FMN        -0.6301
     24 C4'        -3.3751   -2.3648    2.4851 C.3       1 FMN         0.0813
     25 O4'        -2.3027   -1.4724    2.7946 O.3       1 FMN        -0.6796
     26 C5'        -4.6666   -1.7923    3.0674 C.3       1 FMN         0.1813
     27 O5'        -4.8948   -0.5063    2.4997 O.3       1 FMN        -0.5642
     28 P          -6.2355    0.3349    2.9644 P.3       1 FMN         1.3127
     29 O1P        -7.4101   -0.5534    2.5651 O.co2     1 FMN        -0.9243
     30 O2P        -6.1367    1.6292    2.1625 O.co2     1 FMN        -0.9243
     31 O3P        -6.0735    0.5246    4.4698 O.co2     1 FMN        -0.9243
     32 HN3         3.6607   -8.2239    2.5509 H         1 FMN         0.3334
     33 H6          3.2920   -2.4807   -1.1791 H         1 FMN         0.1447
     34 HM71        1.5822   -0.3820   -2.6964 H         1 FMN         0.0392
     35 HM72        1.8243    0.8717   -1.4550 H         1 FMN         0.0392
     36 HM73        3.1694   -0.1698   -1.9170 H         1 FMN         0.0392
     37 HM81       -1.0476    0.1680   -0.7429 H         1 FMN         0.0535
     38 HM82       -0.6692    0.6350    0.9334 H         1 FMN         0.0535
     39 HM83        0.3769    1.1733   -0.3794 H         1 FMN         0.0535
     40 H9         -0.6349   -1.6256    1.7128 H         1 FMN         0.1971
     41 H1'1       -0.5966   -2.6906    3.2480 H         1 FMN         0.1123
     42 H1'2       -0.2877   -4.2309    4.0717 H         1 FMN         0.1123
     43 H2'        -1.7472   -5.4461    2.5961 H         1 FMN         0.0570
     44 HO2'       -2.5116   -4.4850    0.6800 H         1 FMN         0.4322
     45 H3'        -2.9525   -3.6713    4.1353 H         1 FMN         0.0570
     46 HO3'       -3.9323   -5.4805    3.1906 H         1 FMN         0.4323
     47 H4'        -3.4533   -2.4041    1.3924 H         1 FMN         0.0270
     48 HO4'       -2.5498   -0.6114    2.4258 H         1 FMN         0.4672
     49 H5'1       -5.5295   -2.4203    2.8236 H         1 FMN         0.0181
     50 H5'2       -4.5904   -1.6754    4.1528 H         1 FMN         0.0181
@<TRIPOS>BOND
     1    1    2 ar
     2    1   18 ar
     3    2    3 2
     4    2    4 ar
     5    4    5 ar
     6    4   32 1
     7    5    6 2
     8    5    7 ar
     9    7    8 ar
    10    7   18 ar
    11    8    9 ar
    12    9   10 ar
    13    9   16 ar
    14   10   11 ar
    15   10   33 1
    16   11   12 1
    17   11   13 ar
    18   12   34 1
    19   12   35 1
    20   12   36 1
    21   13   14 1
    22   13   15 ar
    23   14   37 1
    24   14   38 1
    25   14   39 1
    26   15   16 ar
    27   15   40 1
    28   16   17 ar
    29   17   18 ar
    30   17   19 1
    31   19   20 1
    32   19   41 1
    33   19   42 1
    34   20   21 1
    35   20   22 1
    36   20   43 1
    37   21   44 1
    38   22   23 1
    39   22   24 1
    40   22   45 1
    41   23   46 1
    42   24   25 1
    43   24   26 1
    44   24   47 1
    45   25   48 1
    46   26   27 1
    47   26   49 1
    48   26   50 1
    49   27   28 1
    50   28   29 2
    51   28   30 1
    52   28   31 1
@<TRIPOS>SUBSTRUCTURE
     1 FMN         1 GROUP 0 A     ****
@<TRIPOS>MOLECULE
[5-(7,8-dimethyl-2,4-dioxo-benzo[g]pteridin-10-yl)-2,3,4-trihydroxy-pentyl] phosphate
   50    52     1     0     0
SMALL
USER_CHARGES

@<TRIPOS>ATOM
      1 N1          1.2277   -6.1042    3.2212 N.2       1 FMN        -0.6988
      2 C2          2.0186   -7.2293    3.3119 C.ar      1 FMN         0.8536
      3 O2          1.7830   -8.1102    4.1421 O.2       1 FMN        -0.6019
      4 N3          3.1050   -7.3794    2.4494 N.pl3     1 FMN        -0.6223
      5 C4          3.4932   -6.4908    1.4752 C.ar      1 FMN         0.6334
      6 O4          4.4350   -6.5937    0.7081 O.2       1 FMN        -0.6125
      7 C4A         2.6001   -5.2945    1.4253 C.ar      1 FMN         0.2211
      8 N5          2.8818   -4.3956    0.5389 N.2       1 FMN        -0.4286
      9 C5A         2.0834   -3.2454    0.4374 C.ar      1 FMN         0.0170
     10 C6          2.4298   -2.2996   -0.5398 C.ar      1 FMN        -0.0553
     11 C7          1.6851   -1.1351   -0.6992 C.ar      1 FMN        -0.1211
     12 C7M         2.0850   -0.1527   -1.7495 C.3       1 FMN        -0.0435
     13 C8          0.5864   -0.9067    0.1183 C.ar      1 FMN        -0.0173
     14 C8M        -0.2342    0.3332   -0.0271 C.3       1 FMN        -0.0630
     15 C9          0.2330   -1.8421    1.0943 C.ar      1 FMN        -0.1390
     16 C9A         0.9704   -3.0274    1.2749 C.ar      1 FMN         0.1887
     17 N10         0.6547   -4.0033    2.2457 N.pl3     1 FMN        -0.5294
     18 C10         1.4328   -5.1491    2.3626 C.ar      1 FMN         0.6151
     19 C1'        -0.5012   -3.7679    3.1095 C.3       1 FMN         0.1741
     20 C2'        -1.7519   -4.3580    2.4592 C.3       1 FMN         0.1411
     21 O2'        -2.2248   -3.4496    1.4638 O.3       1 FMN        -0.6334
     22 C3'        -2.8727   -4.6164    3.4857 C.3       1 FMN         0.1067
     23 O3'        -4.1269   -4.7133    2.8122 O.3       1 FMN        -0.6301
     24 C4'        -2.9732   -3.5152    4.5584 C.3       1 FMN         0.0813
     25 O4'        -1.7362   -3.4405    5.2700 O.3       1 FMN        -0.6796
     26 C5'        -4.0950   -3.7801    5.5614 C.3       1 FMN         0.1813
     27 O5'        -4.1186   -2.7207    6.5130 O.3       1 FMN        -0.5642
     28 P          -3.8889   -3.0850    8.1054 P.3       1 FMN         1.3127
     29 O1P        -5.0295   -4.0362    8.4554 O.co2     1 FMN        -0.9243
     30 O2P        -3.9803   -1.7274    8.7956 O.co2     1 FMN        -0.9243
     31 O3P        -2.5017   -3.7179    8.1636 O.co2     1 FMN        -0.9243
     32 HN3         3.6607   -8.2239    2.5509 H         1 FMN         0.3334
     33 H6          3.2920   -2.4807   -1.1791 H         1 FMN         0.1447
     34 HM71        1.5822   -0.3820   -2.6964 H         1 FMN         0.0392
     35 HM72        1.8243    0.8717   -1.4550 H         1 FMN         0.0392
     36 HM73        3.1694   -0.1698   -1.9170 H         1 FMN         0.0392
     37 HM81       -1.0476    0.1680   -0.7429 H         1 FMN         0.0535
     38 HM82       -0.6692    0.6350    0.9334 H         1 FMN         0.0535
     39 HM83        0.3769    1.1733   -0.3794 H         1 FMN         0.0535
     40 H9         -0.6349   -1.6256    1.7128 H         1 FMN         0.1971
     41 H1'1       -0.5966   -2.6906    3.2480 H         1 FMN         0.1123
     42 H1'2       -0.2877   -4.2309    4.0717 H         1 FMN         0.1123
     43 H2'        -1.4853   -5.2946    1.9549 H         1 FMN         0.0570
     44 HO2'       -3.0142   -3.8561    1.0759 H         1 FMN         0.4322
     45 H3'        -2.6911   -5.5689    3.9999 H         1 FMN         0.0570
     46 HO3'       -4.0490   -5.4541    2.1920 H         1 FMN         0.4323
     47 H4'        -3.1296   -2.5390    4.0852 H         1 FMN         0.0270
     48 HO4'       -1.6010   -4.3107    5.6735 H         1 FMN         0.4672
     49 H5'1       -5.0734   -3.8072    5.0711 H         1 FMN         0.0181
     50 H5'2       -3.9268   -4.7172    6.1010 H         1 FMN         0.0181
@<TRIPOS>BOND
     1    1    2 ar
     2    1   18 ar
     3    2    3 2
     4    2    4 ar
     5    4    5 ar
     6    4   32 1
     7    5    6 2
     8    5    7 ar
     9    7    8 ar
    10    7   18 ar
    11    8    9 ar
    12    9   10 ar
    13    9   16 ar
    14   10   11 ar
    15   10   33 1
    16   11   12 1
    17   11   13 ar
    18   12   34 1
    19   12   35 1
    20   12   36 1
    21   13   14 1
    22   13   15 ar
    23   14   37 1
    24   14   38 1
    25   14   39 1
    26   15   16 ar
    27   15   40 1
    28   16   17 ar
    29   17   18 ar
    30   17   19 1
    31   19   20 1
    32   19   41 1
    33   19   42 1
    34   20   21 1
    35   20   22 1
    36   20   43 1
    37   21   44 1
    38   22   23 1
    39   22   24 1
    40   22   45 1
    41   23   46 1
    42   24   25 1
    43   24   26 1
    44   24   47 1
    45   25   48 1
    46   26   27 1
    47   26   49 1
    48   26   50 1
    49   27   28 1
    50   28   29 2
    51   28   30 1
    52   28   31 1
@<TRIPOS>SUBSTRUCTURE
     1 FMN         1 GROUP 0 A     ****
@<TRIPOS>MOLECULE
[5-(7,8-dimethyl-2,4-dioxo-benzo[g]pteridin-10-yl)-2,3,4-trihydroxy-pentyl] phosphate
   50    52     1     0     0
SMALL
USER_CHARGES

@<TRIPOS>ATOM
      1 N1          1.2277   -6.1042    3.2212 N.2       1 FMN        -0.6988
      2 C2          2.0186   -7.2293    3.3119 C.ar      1 FMN         0.8536
      3 O2          1.7830   -8.1102    4.1421 O.2       1 FMN        -0.6019
      4 N3          3.1050   -7.3794    2.4494 N.pl3     1 FMN        -0.6223
      5 C4          3.4932   -6.4908    1.4752 C.ar      1 FMN         0.6334
      6 O4          4.4350   -6.5937    0.7081 O.2       1 FMN        -0.6125
      7 C4A         2.6001   -5.2945    1.4253 C.ar      1 FMN         0.2211
      8 N5          2.8818   -4.3956    0.5389 N.2       1 FMN        -0.4286
      9 C5A         2.0834   -3.2454    0.4374 C.ar      1 FMN         0.0170
     10 C6          2.4298   -2.2996   -0.5398 C.ar      1 FMN        -0.0553
     11 C7          1.6851   -1.1351   -0.6992 C.ar      1 FMN        -0.1211
     12 C7M         2.0850   -0.1527   -1.7495 C.3       1 FMN        -0.0435
     13 C8          0.5864   -0.9067    0.1183 C.ar      1 FMN        -0.0173
     14 C8M        -0.2342    0.3332   -0.0271 C.3       1 FMN        -0.0630
     15 C9          0.2330   -1.8421    1.0943 C.ar      1 FMN        -0.1390
     16 C9A         0.9704   -3.0274    1.2749 C.ar      1 FMN         0.1887
     17 N10         0.6547   -4.0033    2.2457 N.pl3     1 FMN        -0.5294
     18 C10         1.4328   -5.1491    2.3626 C.ar      1 FMN         0.6151
     19 C1'        -0.5012   -3.7679    3.1095 C.3       1 FMN         0.1741
     20 C2'        -0.0563   -3.0138    4.3619 C.3       1 FMN         0.1411
     21 O2'         0.9124   -3.8026    5.0539 O.3       1 FMN        -0.6334
     22 C3'        -1.2361   -2.7121    5.3074 C.3       1 FMN         0.1067
     23 O3'        -1.5457   -3.8750    6.0741 O.3       1 FMN        -0.6301
     24 C4'        -2.5062   -2.2611    4.5614 C.3       1 FMN         0.0813
     25 O4'        -3.3649   -1.5725    5.4727 O.3       1 FMN        -0.6796
     26 C5'        -3.2771   -3.4360    3.9614 C.3       1 FMN         0.1813
     27 O5'        -4.1318   -2.9461    2.9329 O.3       1 FMN        -0.5642
     28 P          -4.4899   -3.9385    1.6649 P.3       1 FMN         1.3127
     29 O1P        -3.1413   -4.2531    1.0241 O.co2     1 FMN        -0.9243
     30 O2P        -5.4054   -3.0834    0.7939 O.co2     1 FMN        -0.9243
     31 O3P        -5.1824   -5.1426    2.2966 O.co2     1 FMN        -0.9243
     32 HN3         3.6607   -8.2239    2.5509 H         1 FMN         0.3334
     33 H6          3.2920   -2.4807   -1.1791 H         1 FMN         0.1447
     34 HM71        1.5822   -0.3820   -2.6964 H         1 FMN         0.0392
     35 HM72        1.8243    0.8717   -1.4550 H         1 FMN         0.0392
     36 HM73        3.1694   -0.1698   -1.9170 H         1 FMN         0.0392
     37 HM81       -1.0476    0.1680   -0.7429 H         1 FMN         0.0535
     38 HM82       -0.6692    0.6350    0.9334 H         1 FMN         0.0535
     39 HM83        0.3769    1.1733   -0.3794 H         1 FMN         0.0535
     40 H9         -0.6349   -1.6256    1.7128 H         1 FMN         0.1971
     41 H1'1       -0.9287   -4.7387    3.3617 H         1 FMN         0.1123
     42 H1'2       -1.2289   -3.2002    2.5315 H         1 FMN         0.1123
     43 H2'         0.4300   -2.0775    4.0623 H         1 FMN         0.0570
     44 HO2'        0.4737   -4.6359    5.2820 H         1 FMN         0.4322
     45 H3'        -0.9559   -1.9124    6.0050 H         1 FMN         0.0570
     46 HO3'       -2.2886   -3.6352    6.6487 H         1 FMN         0.4323
     47 H4'        -2.2469   -1.5511    3.7676 H         1 FMN         0.0270
     48 HO4'       -2.8619   -0.8116    5.7989 H         1 FMN         0.4672
     49 H5'1       -2.6021   -4.1701    3.5099 H         1 FMN         0.0181
     50 H5'2       -3.9006   -3.9239    4.7169 H         1 FMN         0.0181
@<TRIPOS>BOND
     1    1    2 ar
     2    1   18 ar
     3    2    3 2
     4    2    4 ar
     5    4    5 ar
     6    4   32 1
     7    5    6 2
     8    5    7 ar
     9    7    8 ar
    10    7   18 ar
    11    8    9 ar
    12    9   10 ar
    13    9   16 ar
    14   10   11 ar
    15   10   33 1
    16   11   12 1
    17   11   13 ar
    18   12   34 1
    19   12   35 1
    20   12   36 1
    21   13   14 1
    22   13   15 ar
    23   14   37 1
    24   14   38 1
    25   14   39 1
    26   15   16 ar
    27   15   40 1
    28   16   17 ar
    29   17   18 ar
    30   17   19 1
    31   19   20 1
    32   19   41 1
    33   19   42 1
    34   20   21 1
    35   20   22 1
    36   20   43 1
    37   21   44 1
    38   22   23 1
    39   22   24 1
    40   22   45 1
    41   23   46 1
    42   24   25 1
    43   24   26 1
    44   24   47 1
    45   25   48 1
    46   26   27 1
    47   26   49 1
    48   26   50 1
    49   27   28 1
    50   28   29 2
    51   28   30 1
    52   28   31 1
@<TRIPOS>SUBSTRUCTURE
     1 FMN         1 GROUP 0 A     ****
@<TRIPOS>MOLECULE
[5-(7,8-dimethyl-2,4-dioxo-benzo[g]pteridin-10-yl)-2,3,4-trihydroxy-pentyl] phosphate
   50    52     1     0     0
SMALL
USER_CHARGES

@<TRIPOS>ATOM
      1 N1          1.2277   -6.1042    3.2212 N.2       1 FMN        -0.6988
      2 C2          2.0186   -7.2293    3.3119 C.ar      1 FMN         0.8536
      3 O2          1.7830   -8.1102    4.1421 O.2       1 FMN        -0.6019
      4 N3          3.1050   -7.3794    2.4494 N.pl3     1 FMN        -0.6223
      5 C4          3.4932   -6.4908    1.4752 C.ar      1 FMN         0.6334
      6 O4          4.4350   -6.5937    0.7081 O.2       1 FMN        -0.6125
      7 C4A         2.6001   -5.2945    1.4253 C.ar      1 FMN         0.2211
      8 N5          2.8818   -4.3956    0.5389 N.2       1 FMN        -0.4286
      9 C5A         2.0834   -3.2454    0.4374 C.ar      1 FMN         0.0170
     10 C6          2.4298   -2.2996   -0.5398 C.ar      1 FMN        -0.0553
     11 C7          1.6851   -1.1351   -0.6992 C.ar      1 FMN        -0.1211
     12 C7M         2.0850   -0.1527   -1.7495 C.3       1 FMN        -0.0435
     13 C8          0.5864   -0.9067    0.1183 C.ar      1 FMN        -0.0173
     14 C8M        -0.2342    0.3332   -0.0271 C.3       1 FMN        -0.0630
     15 C9          0.2330   -1.8421    1.0943 C.ar      1 FMN        -0.1390
     16 C9A         0.9704   -3.0274    1.2749 C.ar      1 FMN         0.1887
     17 N10         0.6547   -4.0033    2.2457 N.pl3     1 FMN        -0.5294
     18 C10         1.4328   -5.1491    2.3626 C.ar      1 FMN         0.6151
     19 C1'        -0.5012   -3.7679    3.1095 C.3       1 FMN         0.1741
     20 C2'        -0.0563   -3.0138    4.3619 C.3       1 FMN         0.1411
     21 O2'         1.2000   -3.5387    4.7929 O.3       1 FMN        -0.6334
     22 C3'        -1.0797   -3.1379    5.5082 C.3       1 FMN         0.1067
     23 O3'        -0.8754   -2.0852    6.4496 O.3       1 FMN        -0.6301
     24 C4'        -0.9937   -4.4855    6.2496 C.3       1 FMN         0.0813
     25 O4'         0.3798   -4.8489    6.4027 O.3       1 FMN        -0.6796
     26 C5'        -1.7125   -5.6080    5.5024 C.3       1 FMN         0.1813
     27 O5'        -1.9957   -6.6607    6.4189 O.3       1 FMN        -0.5642
     28 P          -2.7744   -8.0039    5.8617 P.3       1 FMN         1.3127
     29 O1P        -4.1102   -7.4885    5.3343 O.co2     1 FMN        -0.9243
     30 O2P        -2.8957   -8.8828    7.1030 O.co2     1 FMN        -0.9243
     31 O3P        -1.8510   -8.5718    4.7879 O.co2     1 FMN        -0.9243
     32 HN3         3.6607   -8.2239    2.5509 H         1 FMN         0.3334
     33 H6          3.2920   -2.4807   -1.1791 H         1 FMN         0.1447
     34 HM71        1.5822   -0.3820   -2.6964 H         1 FMN         0.0392
     35 HM72        1.8243    0.8717   -1.4550 H         1 FMN         0.0392
     36 HM73        3.1694   -0.1698   -1.9170 H         1 FMN         0.0392
     37 HM81       -1.0476    0.1680   -0.7429 H         1 FMN         0.0535
     38 HM82       -0.6692    0.6350    0.9334 H         1 FMN         0.0535
     39 HM83        0.3769    1.1733   -0.3794 H         1 FMN         0.0535
     40 H9         -0.6349   -1.6256    1.7128 H         1 FMN         0.1971
     41 H1'1       -0.9287   -4.7387    3.3617 H         1 FMN         0.1123
     42 H1'2       -1.2289   -3.2002    2.5315 H         1 FMN         0.1123
     43 H2'         0.0940   -1.9572    4.1093 H         1 FMN         0.0570
     44 HO2'        1.8193   -3.4013    4.0605 H         1 FMN         0.4322
     45 H3'        -2.0970   -3.0404    5.1081 H         1 FMN         0.0570
     46 HO3'       -1.5388   -2.2069    7.1458 H         1 FMN         0.4323
     47 H4'        -1.4138   -4.3906    7.2575 H         1 FMN         0.0270
     48 HO4'        0.7935   -4.1398    6.9168 H         1 FMN         0.4672
     49 H5'1       -2.6652   -5.2663    5.0852 H         1 FMN         0.0181
     50 H5'2       -1.0843   -6.0135    4.7033 H         1 FMN         0.0181
@<TRIPOS>BOND
     1    1    2 ar
     2    1   18 ar
     3    2    3 2
     4    2    4 ar
     5    4    5 ar
     6    4   32 1
     7    5    6 2
     8    5    7 ar
     9    7    8 ar
    10    7   18 ar
    11    8    9 ar
    12    9   10 ar
    13    9   16 ar
    14   10   11 ar
    15   10   33 1
    16   11   12 1
    17   11   13 ar
    18   12   34 1
    19   12   35 1
    20   12   36 1
    21   13   14 1
    22   13   15 ar
    23   14   37 1
    24   14   38 1
    25   14   39 1
    26   15   16 ar
    27   15   40 1
    28   16   17 ar
    29   17   18 ar
    30   17   19 1
    31   19   20 1
    32   19   41 1
    33   19   42 1
    34   20   21 1
    35   20   22 1
    36   20   43 1
    37   21   44 1
    38   22   23 1
    39   22   24 1
    40   22   45 1
    41   23   46 1
    42   24   25 1
    43   24   26 1
    44   24   47 1
    45   25   48 1
    46   26   27 1
    47   26   49 1
    48   26   50 1
    49   27   28 1
    50   28   29 2
    51   28   30 1
    52   28   31 1
@<TRIPOS>SUBSTRUCTURE
     1 FMN         1 GROUP 0 A     ****
@<TRIPOS>MOLECULE
[5-(7,8-dimethyl-2,4-dioxo-benzo[g]pteridin-10-yl)-2,3,4-trihydroxy-pentyl] phosphate
   50    52     1     0     0
SMALL
USER_CHARGES

@<TRIPOS>ATOM
      1 N1          1.2277   -6.1042    3.2212 N.2       1 FMN        -0.6988
      2 C2          2.0186   -7.2293    3.3119 C.ar      1 FMN         0.8536
      3 O2          1.7830   -8.1102    4.1421 O.2       1 FMN        -0.6019
      4 N3          3.1050   -7.3794    2.4494 N.pl3     1 FMN        -0.6223
      5 C4          3.4932   -6.4908    1.4752 C.ar      1 FMN         0.6334
      6 O4          4.4350   -6.5937    0.7081 O.2       1 FMN        -0.6125
      7 C4A         2.6001   -5.2945    1.4253 C.ar      1 FMN         0.2211
      8 N5          2.8818   -4.3956    0.5389 N.2       1 FMN        -0.4286
      9 C5A         2.0834   -3.2454    0.4374 C.ar      1 FMN         0.0170
     10 C6          2.4298   -2.2996   -0.5398 C.ar      1 FMN        -0.0553
     11 C7          1.6851   -1.1351   -0.6992 C.ar      1 FMN        -0.1211
     12 C7M         2.0850   -0.1527   -1.7495 C.3       1 FMN        -0.0435
     13 C8          0.5864   -0.9067    0.1183 C.ar      1 FMN        -0.0173
     14 C8M        -0.2342    0.3332   -0.0271 C.3       1 FMN        -0.0630
     15 C9          0.2330   -1.8421    1.0943 C.ar      1 FMN        -0.1390
     16 C9A         0.9704   -3.0274    1.2749 C.ar      1 FMN         0.1887
     17 N10         0.6547   -4.0033    2.2457 N.pl3     1 FMN        -0.5294
     18 C10         1.4328   -5.1491    2.3626 C.ar      1 FMN         0.6151
     19 C1'        -0.5012   -3.7679    3.1095 C.3       1 FMN         0.1741
     20 C2'        -1.7519   -4.3580    2.4592 C.3       1 FMN         0.1411
     21 O2'        -2.9043   -3.7429    3.0366 O.3       1 FMN        -0.6334
     22 C3'        -1.8403   -5.8851    2.6514 C.3       1 FMN         0.1067
     23 O3'        -3.0236   -6.3795    2.0259 O.3       1 FMN        -0.6301
     24 C4'        -1.8534   -6.3063    4.1331 C.3       1 FMN         0.0813
     25 O4'        -1.9366   -7.7305    4.2144 O.3       1 FMN        -0.6796
     26 C5'        -3.0321   -5.7066    4.8985 C.3       1 FMN         0.1813
     27 O5'        -2.7378   -5.7383    6.2916 O.3       1 FMN        -0.5642
     28 P          -2.6923   -4.3133    7.1213 P.3       1 FMN         1.3127
     29 O1P        -1.5920   -3.5029    6.4425 O.co2     1 FMN        -0.9243
     30 O2P        -2.3557   -4.7440    8.5458 O.co2     1 FMN        -0.9243
     31 O3P        -4.0925   -3.7273    6.9655 O.co2     1 FMN        -0.9243
     32 HN3         3.6607   -8.2239    2.5509 H         1 FMN         0.3334
     33 H6          3.2920   -2.4807   -1.1791 H         1 FMN         0.1447
     34 HM71        1.5822   -0.3820   -2.6964 H         1 FMN         0.0392
     35 HM72        1.8243    0.8717   -1.4550 H         1 FMN         0.0392
     36 HM73        3.1694   -0.1698   -1.9170 H         1 FMN         0.0392
     37 HM81       -1.0476    0.1680   -0.7429 H         1 FMN         0.0535
     38 HM82       -0.6692    0.6350    0.9334 H         1 FMN         0.0535
     39 HM83        0.3769    1.1733   -0.3794 H         1 FMN         0.0535
     40 H9         -0.6349   -1.6256    1.7128 H         1 FMN         0.1971
     41 H1'1       -0.5966   -2.6906    3.2480 H         1 FMN         0.1123
     42 H1'2       -0.2877   -4.2309    4.0717 H         1 FMN         0.1123
     43 H2'        -1.7471   -4.1167    1.3894 H         1 FMN         0.0570
     44 HO2'       -2.8274   -2.7942    2.8552 H         1 FMN         0.4322
     45 H3'        -0.9785   -6.3686    2.1736 H         1 FMN         0.0570
     46 HO3'       -3.0328   -7.3373    2.1740 H         1 FMN         0.4323
     47 H4'        -0.9155   -6.0124    4.6185 H         1 FMN         0.0270
     48 HO4'       -1.1541   -8.0755    3.7595 H         1 FMN         0.4672
     49 H5'1       -3.2019   -4.6618    4.6192 H         1 FMN         0.0181
     50 H5'2       -3.9452   -6.2862    4.7313 H         1 FMN         0.0181
@<TRIPOS>BOND
     1    1    2 ar
     2    1   18 ar
     3    2    3 2
     4    2    4 ar
     5    4    5 ar
     6    4   32 1
     7    5    6 2
     8    5    7 ar
     9    7    8 ar
    10    7   18 ar
    11    8    9 ar
    12    9   10 ar
    13    9   16 ar
    14   10   11 ar
    15   10   33 1
    16   11   12 1
    17   11   13 ar
    18   12   34 1
    19   12   35 1
    20   12   36 1
    21   13   14 1
    22   13   15 ar
    23   14   37 1
    24   14   38 1
    25   14   39 1
    26   15   16 ar
    27   15   40 1
    28   16   17 ar
    29   17   18 ar
    30   17   19 1
    31   19   20 1
    32   19   41 1
    33   19   42 1
    34   20   21 1
    35   20   22 1
    36   20   43 1
    37   21   44 1
    38   22   23 1
    39   22   24 1
    40   22   45 1
    41   23   46 1
    42   24   25 1
    43   24   26 1
    44   24   47 1
    45   25   48 1
    46   26   27 1
    47   26   49 1
    48   26   50 1
    49   27   28 1
    50   28   29 2
    51   28   30 1
    52   28   31 1
@<TRIPOS>SUBSTRUCTURE
     1 FMN         1 GROUP 0 A     ****
