FBP
  CCTOOLS-0326171108

 34 34  0  0  1  0  0  0  0  0999 V2000
   99.9250   23.1470   35.7990 P   0  0  0  0  0
  100.0690   22.4910   34.4160 O   0  0  0  0  0
   99.1640   22.3390   36.7360 O   0  0  0  0  0
   99.4360   24.5170   35.4750 O   0  0  0  0  0
  101.3300   23.2340   36.3570 O   0  0  0  0  0
  102.3720   23.6190   35.4330 C   0  0  0  0  0
  103.6020   23.7610   36.2710 C   0  0  0  0  0
  103.2760   24.7310   37.2010 O   0  0  0  0  0
  104.8600   24.2290   35.4850 C   0  0  0  0  0
  104.6410   25.5610   34.9560 O   0  0  0  0  0
  105.9270   24.0420   36.5900 C   0  0  0  0  0
  107.3080   24.1880   36.1650 O   0  0  0  0  0
  105.5020   22.6270   37.1840 C   0  0  0  0  0
  104.0240   22.5260   36.9400 O   0  0  0  0  0
  105.7810   22.5680   38.6760 C   0  0  0  0  0
  105.4150   21.2960   39.3900 O   0  0  0  0  0
  106.2130   20.0060   39.4580 P   0  0  0  0  0
  107.4480   20.2700   38.6570 O   0  0  0  0  0
  105.2020   19.0560   38.8780 O   0  0  0  0  0
  106.5820   19.6210   40.8370 O   0  0  0  0  0
   99.0750   22.7440   37.5900 H   0  0  0  0  0
   99.3470   24.9220   36.3290 H   0  0  0  0  0
  102.4910   22.9210   34.5710 H   0  0  0  0  0
  102.1280   24.5250   34.8310 H   0  0  0  0  0
  104.0570   24.8210   37.7330 H   0  0  0  0  0
  105.1540   23.6880   34.5550 H   0  0  0  0  0
  105.4090   25.8460   34.4750 H   0  0  0  0  0
  105.9330   24.8500   37.3570 H   0  0  0  0  0
  107.9630   24.0730   36.8430 H   0  0  0  0  0
  106.0700   21.7930   36.7080 H   0  0  0  0  0
  106.8540   22.8030   38.8630 H   0  0  0  0  0
  105.2890   23.4320   39.1800 H   0  0  0  0  0
  105.7010   18.2480   38.9200 H   0  0  0  0  0
  107.0810   18.8130   40.8790 H   0  0  0  0  0
  1  2  2  0  0  0
  1  3  1  0  0  0
  1  4  1  0  0  0
  1  5  1  0  0  0
  3 21  1  0  0  0
  4 22  1  0  0  0
  5  6  1  0  0  0
  6  7  1  0  0  0
  6 23  1  0  0  0
  6 24  1  0  0  0
  7  8  1  0  0  0
  7  9  1  0  0  0
  7 14  1  0  0  0
  8 25  1  0  0  0
  9 10  1  0  0  0
  9 11  1  0  0  0
  9 26  1  0  0  0
 10 27  1  0  0  0
 11 12  1  0  0  0
 11 13  1  0  0  0
 11 28  1  0  0  0
 12 29  1  0  0  0
 13 14  1  0  0  0
 13 15  1  0  0  0
 13 30  1  0  0  0
 15 16  1  0  0  0
 15 31  1  0  0  0
 15 32  1  0  0  0
 16 17  1  0  0  0
 17 18  2  0  0  0
 17 19  1  0  0  0
 17 20  1  0  0  0
 19 33  1  0  0  0
 20 34  1  0  0  0
M  END
$$$$
