FBP
                    3D
 Structure written by MMmdl.
 30 30  0  0  1  0            999 V2000
   99.9250   23.1470   35.7990 P   0  0  0  0  0  0
  100.0690   22.4910   34.4160 O   0  0  0  0  0  0
   99.1640   22.3390   36.7360 O   0  5  0  0  0  0
   99.4360   24.5170   35.4750 O   0  5  0  0  0  0
  101.3300   23.2340   36.3570 O   0  0  0  0  0  0
  102.3720   23.6190   35.4330 C   0  0  0  0  0  0
  103.6020   23.7610   36.2710 C   0  0  2  0  0  0
  103.2760   24.7310   37.2010 O   0  0  0  0  0  0
  104.8600   24.2290   35.4850 C   0  0  1  0  0  0
  104.6410   25.5610   34.9560 O   0  0  0  0  0  0
  105.9270   24.0420   36.5900 C   0  0  2  0  0  0
  107.3080   24.1880   36.1650 O   0  0  0  0  0  0
  105.5020   22.6270   37.1840 C   0  0  2  0  0  0
  104.0240   22.5260   36.9400 O   0  0  0  0  0  0
  105.7810   22.5680   38.6760 C   0  0  0  0  0  0
  105.4150   21.2960   39.3900 O   0  0  0  0  0  0
  106.2130   20.0060   39.4580 P   0  0  0  0  0  0
  107.4480   20.2700   38.6570 O   0  0  0  0  0  0
  105.2020   19.0560   38.8780 O   0  5  0  0  0  0
  106.5820   19.6210   40.8370 O   0  5  0  0  0  0
  102.4908   22.8376   34.6680 H   0  0  0  0  0  0
  102.1000   24.5683   34.9483 H   0  0  0  0  0  0
  102.9379   25.7227   36.8659 H   0  0  0  0  0  0
  105.1463   23.7563   34.5339 H   0  0  0  0  0  0
  103.8890   25.7238   34.1699 H   0  0  0  0  0  0
  106.0121   24.8714   37.3075 H   0  0  0  0  0  0
  107.6567   25.1439   35.7470 H   0  0  0  0  0  0
  106.0298   21.7711   36.7380 H   0  0  0  0  0  0
  106.8577   22.7069   38.8534 H   0  0  0  0  0  0
  105.2196   23.3648   39.1858 H   0  0  0  0  0  0
  1  2  2  0  0  0
  1  3  1  0  0  0
  1  4  1  0  0  0
  1  5  1  0  0  0
  5  6  1  0  0  0
  6  7  1  0  0  0
  6 21  1  0  0  0
  6 22  1  0  0  0
  7  8  1  0  0  0
  7  9  1  0  0  0
  7 14  1  0  0  0
  8 23  1  0  0  0
  9 10  1  0  0  0
  9 11  1  0  0  0
  9 24  1  0  0  0
 10 25  1  0  0  0
 11 12  1  0  0  0
 11 13  1  0  0  0
 11 26  1  0  0  0
 12 27  1  0  0  0
 13 14  1  0  0  0
 13 15  1  0  0  0
 13 28  1  0  0  0
 15 16  1  0  0  0
 15 29  1  0  0  0
 15 30  1  0  0  0
 16 17  1  0  0  0
 17 18  2  0  0  0
 17 19  1  0  0  0
 17 20  1  0  0  0
M  CHG  4   3  -1   4  -1  19  -1  20  -1
M  END
> <s_m_source_file>
/cbio/jclab/home/rustenburg/PFK/Epik-Ligands/Results/InProgress/BETA-FRUCTOSE-1,6-DIPHOSPHATE/pH_7.0/BETA-FRUCTOSE-1,6-DIPHOSPHATE_pH_7.0-before_epik.mol2

> <i_m_source_file_index>
1

> <r_epik_Ionization_Penalty>
  0.1882

> <r_epik_Ionization_Penalty_Charging>
  0.1882

> <r_epik_Ionization_Penalty_Neutral>
  0.0000

> <r_epik_State_Penalty>
  0.1577

> <r_epik_Charging_Adjusted_Penalty>
0.345916624608127

> <i_epik_Tot_Q>
-4

> <i_epik_Tot_abs_Q>
4

$$$$
FBP
                    3D
 Structure written by MMmdl.
 31 31  0  0  1  0            999 V2000
   99.9250   23.1470   35.7990 P   0  0  0  0  0  0
  100.0690   22.4910   34.4160 O   0  0  0  0  0  0
   99.1640   22.3390   36.7360 O   0  5  0  0  0  0
   99.4360   24.5170   35.4750 O   0  5  0  0  0  0
  101.3300   23.2340   36.3570 O   0  0  0  0  0  0
  102.3720   23.6190   35.4330 C   0  0  0  0  0  0
  103.6020   23.7610   36.2710 C   0  0  2  0  0  0
  103.2760   24.7310   37.2010 O   0  0  0  0  0  0
  104.8600   24.2290   35.4850 C   0  0  1  0  0  0
  104.6410   25.5610   34.9560 O   0  0  0  0  0  0
  105.9270   24.0420   36.5900 C   0  0  2  0  0  0
  107.3080   24.1880   36.1650 O   0  0  0  0  0  0
  105.5020   22.6270   37.1840 C   0  0  2  0  0  0
  104.0240   22.5260   36.9400 O   0  0  0  0  0  0
  105.7810   22.5680   38.6760 C   0  0  0  0  0  0
  105.4150   21.2960   39.3900 O   0  0  0  0  0  0
  106.2130   20.0060   39.4580 P   0  0  0  0  0  0
  107.4480   20.2700   38.6570 O   0  0  0  0  0  0
  105.2020   19.0560   38.8780 O   0  5  0  0  0  0
  106.5820   19.6210   40.8370 O   0  0  0  0  0  0
  102.4908   22.8376   34.6680 H   0  0  0  0  0  0
  102.1000   24.5683   34.9483 H   0  0  0  0  0  0
  102.9379   25.7227   36.8659 H   0  0  0  0  0  0
  105.1463   23.7563   34.5339 H   0  0  0  0  0  0
  103.8890   25.7238   34.1699 H   0  0  0  0  0  0
  106.0121   24.8714   37.3075 H   0  0  0  0  0  0
  107.6567   25.1439   35.7470 H   0  0  0  0  0  0
  106.0298   21.7711   36.7380 H   0  0  0  0  0  0
  106.8577   22.7069   38.8534 H   0  0  0  0  0  0
  105.2196   23.3648   39.1858 H   0  0  0  0  0  0
  107.3140   20.2204   41.3981 H   0  0  0  0  0  0
  1  2  2  0  0  0
  1  3  1  0  0  0
  1  4  1  0  0  0
  1  5  1  0  0  0
  5  6  1  0  0  0
  6  7  1  0  0  0
  6 21  1  0  0  0
  6 22  1  0  0  0
  7  8  1  0  0  0
  7  9  1  0  0  0
  7 14  1  0  0  0
  8 23  1  0  0  0
  9 10  1  0  0  0
  9 11  1  0  0  0
  9 24  1  0  0  0
 10 25  1  0  0  0
 11 12  1  0  0  0
 11 13  1  0  0  0
 11 26  1  0  0  0
 12 27  1  0  0  0
 13 14  1  0  0  0
 13 15  1  0  0  0
 13 28  1  0  0  0
 15 16  1  0  0  0
 15 29  1  0  0  0
 15 30  1  0  0  0
 16 17  1  0  0  0
 17 18  2  0  0  0
 17 19  1  0  0  0
 17 20  1  0  0  0
 20 31  1  0  0  0
M  CHG  3   3  -1   4  -1  19  -1
M  END
> <s_m_source_file>
/cbio/jclab/home/rustenburg/PFK/Epik-Ligands/Results/InProgress/BETA-FRUCTOSE-1,6-DIPHOSPHATE/pH_7.0/BETA-FRUCTOSE-1,6-DIPHOSPHATE_pH_7.0-before_epik.mol2

> <i_m_source_file_index>
1

> <r_epik_Ionization_Penalty>
  1.1841

> <r_epik_Ionization_Penalty_Charging>
  0.0871

> <r_epik_Ionization_Penalty_Neutral>
  1.0970

> <r_epik_State_Penalty>
  1.2329

> <r_epik_Charging_Adjusted_Penalty>
1.32002456523737

> <i_epik_Tot_Q>
-3

> <i_epik_Tot_abs_Q>
3

$$$$
FBP
                    3D
 Structure written by MMmdl.
 31 31  0  0  1  0            999 V2000
   99.9250   23.1470   35.7990 P   0  0  0  0  0  0
  100.0690   22.4910   34.4160 O   0  0  0  0  0  0
   99.1640   22.3390   36.7360 O   0  5  0  0  0  0
   99.4360   24.5170   35.4750 O   0  0  0  0  0  0
  101.3300   23.2340   36.3570 O   0  0  0  0  0  0
  102.3720   23.6190   35.4330 C   0  0  0  0  0  0
  103.6020   23.7610   36.2710 C   0  0  2  0  0  0
  103.2760   24.7310   37.2010 O   0  0  0  0  0  0
  104.8600   24.2290   35.4850 C   0  0  1  0  0  0
  104.6410   25.5610   34.9560 O   0  0  0  0  0  0
  105.9270   24.0420   36.5900 C   0  0  2  0  0  0
  107.3080   24.1880   36.1650 O   0  0  0  0  0  0
  105.5020   22.6270   37.1840 C   0  0  2  0  0  0
  104.0240   22.5260   36.9400 O   0  0  0  0  0  0
  105.7810   22.5680   38.6760 C   0  0  0  0  0  0
  105.4150   21.2960   39.3900 O   0  0  0  0  0  0
  106.2130   20.0060   39.4580 P   0  0  0  0  0  0
  107.4480   20.2700   38.6570 O   0  0  0  0  0  0
  105.2020   19.0560   38.8780 O   0  5  0  0  0  0
  106.5820   19.6210   40.8370 O   0  5  0  0  0  0
   98.4285   24.6566   35.0561 H   0  0  0  0  0  0
  102.4908   22.8376   34.6680 H   0  0  0  0  0  0
  102.1000   24.5683   34.9483 H   0  0  0  0  0  0
  102.9379   25.7227   36.8659 H   0  0  0  0  0  0
  105.1463   23.7563   34.5339 H   0  0  0  0  0  0
  103.8890   25.7238   34.1699 H   0  0  0  0  0  0
  106.0121   24.8714   37.3075 H   0  0  0  0  0  0
  107.6567   25.1439   35.7470 H   0  0  0  0  0  0
  106.0298   21.7711   36.7380 H   0  0  0  0  0  0
  106.8577   22.7069   38.8534 H   0  0  0  0  0  0
  105.2196   23.3648   39.1858 H   0  0  0  0  0  0
  1  2  2  0  0  0
  1  3  1  0  0  0
  1  4  1  0  0  0
  1  5  1  0  0  0
  4 21  1  0  0  0
  5  6  1  0  0  0
  6  7  1  0  0  0
  6 22  1  0  0  0
  6 23  1  0  0  0
  7  8  1  0  0  0
  7  9  1  0  0  0
  7 14  1  0  0  0
  8 24  1  0  0  0
  9 10  1  0  0  0
  9 11  1  0  0  0
  9 25  1  0  0  0
 10 26  1  0  0  0
 11 12  1  0  0  0
 11 13  1  0  0  0
 11 27  1  0  0  0
 12 28  1  0  0  0
 13 14  1  0  0  0
 13 15  1  0  0  0
 13 29  1  0  0  0
 15 16  1  0  0  0
 15 30  1  0  0  0
 15 31  1  0  0  0
 16 17  1  0  0  0
 17 18  2  0  0  0
 17 19  1  0  0  0
 17 20  1  0  0  0
M  CHG  3   3  -1  19  -1  20  -1
M  END
> <s_m_source_file>
/cbio/jclab/home/rustenburg/PFK/Epik-Ligands/Results/InProgress/BETA-FRUCTOSE-1,6-DIPHOSPHATE/pH_7.0/BETA-FRUCTOSE-1,6-DIPHOSPHATE_pH_7.0-before_epik.mol2

> <i_m_source_file_index>
1

> <r_epik_Ionization_Penalty>
  1.2809

> <r_epik_Ionization_Penalty_Charging>
  0.1013

> <r_epik_Ionization_Penalty_Neutral>
  1.1796

> <r_epik_State_Penalty>
  1.4106

> <r_epik_Charging_Adjusted_Penalty>
1.51192795307273

> <i_epik_Tot_Q>
-3

> <i_epik_Tot_abs_Q>
3

$$$$
FBP
                    3D
 Structure written by MMmdl.
 32 32  0  0  1  0            999 V2000
   99.9250   23.1470   35.7990 P   0  0  0  0  0  0
  100.0690   22.4910   34.4160 O   0  0  0  0  0  0
   99.1640   22.3390   36.7360 O   0  5  0  0  0  0
   99.4360   24.5170   35.4750 O   0  0  0  0  0  0
  101.3300   23.2340   36.3570 O   0  0  0  0  0  0
  102.3720   23.6190   35.4330 C   0  0  0  0  0  0
  103.6020   23.7610   36.2710 C   0  0  2  0  0  0
  103.2760   24.7310   37.2010 O   0  0  0  0  0  0
  104.8600   24.2290   35.4850 C   0  0  1  0  0  0
  104.6410   25.5610   34.9560 O   0  0  0  0  0  0
  105.9270   24.0420   36.5900 C   0  0  2  0  0  0
  107.3080   24.1880   36.1650 O   0  0  0  0  0  0
  105.5020   22.6270   37.1840 C   0  0  2  0  0  0
  104.0240   22.5260   36.9400 O   0  0  0  0  0  0
  105.7810   22.5680   38.6760 C   0  0  0  0  0  0
  105.4150   21.2960   39.3900 O   0  0  0  0  0  0
  106.2130   20.0060   39.4580 P   0  0  0  0  0  0
  107.4480   20.2700   38.6570 O   0  0  0  0  0  0
  105.2020   19.0560   38.8780 O   0  5  0  0  0  0
  106.5820   19.6210   40.8370 O   0  0  0  0  0  0
   98.4285   24.6566   35.0561 H   0  0  0  0  0  0
  102.4908   22.8376   34.6680 H   0  0  0  0  0  0
  102.1000   24.5683   34.9483 H   0  0  0  0  0  0
  102.9379   25.7227   36.8659 H   0  0  0  0  0  0
  105.1463   23.7563   34.5339 H   0  0  0  0  0  0
  103.8890   25.7238   34.1699 H   0  0  0  0  0  0
  106.0121   24.8714   37.3075 H   0  0  0  0  0  0
  107.6567   25.1439   35.7470 H   0  0  0  0  0  0
  106.0298   21.7711   36.7380 H   0  0  0  0  0  0
  106.8577   22.7069   38.8534 H   0  0  0  0  0  0
  105.2196   23.3648   39.1858 H   0  0  0  0  0  0
  107.3140   20.2204   41.3981 H   0  0  0  0  0  0
  1  2  2  0  0  0
  1  3  1  0  0  0
  1  4  1  0  0  0
  1  5  1  0  0  0
  4 21  1  0  0  0
  5  6  1  0  0  0
  6  7  1  0  0  0
  6 22  1  0  0  0
  6 23  1  0  0  0
  7  8  1  0  0  0
  7  9  1  0  0  0
  7 14  1  0  0  0
  8 24  1  0  0  0
  9 10  1  0  0  0
  9 11  1  0  0  0
  9 25  1  0  0  0
 10 26  1  0  0  0
 11 12  1  0  0  0
 11 13  1  0  0  0
 11 27  1  0  0  0
 12 28  1  0  0  0
 13 14  1  0  0  0
 13 15  1  0  0  0
 13 29  1  0  0  0
 15 16  1  0  0  0
 15 30  1  0  0  0
 15 31  1  0  0  0
 16 17  1  0  0  0
 17 18  2  0  0  0
 17 19  1  0  0  0
 17 20  1  0  0  0
 20 32  1  0  0  0
M  CHG  2   3  -1  19  -1
M  END
> <s_m_source_file>
/cbio/jclab/home/rustenburg/PFK/Epik-Ligands/Results/InProgress/BETA-FRUCTOSE-1,6-DIPHOSPHATE/pH_7.0/BETA-FRUCTOSE-1,6-DIPHOSPHATE_pH_7.0-before_epik.mol2

> <i_m_source_file_index>
1

> <r_epik_Ionization_Penalty>
  2.2769

> <r_epik_Ionization_Penalty_Charging>
  0.0002

> <r_epik_Ionization_Penalty_Neutral>
  2.2766

> <r_epik_State_Penalty>
  2.4360

> <r_epik_Charging_Adjusted_Penalty>
2.43622164938784

> <i_epik_Tot_Q>
-2

> <i_epik_Tot_abs_Q>
2

$$$$
