CRO
  CCTOOLS-0326171052

 40 41  0  0  1  0  0  0  0  0999 V2000
   24.0770   27.5130   36.6100 N   0  0  0  0  0
   25.0110   26.4780   37.0780 C   0  0  0  0  0
   25.9310   26.0350   35.9300 C   0  0  0  0  0
   25.1550   25.4220   34.7960 C   0  0  0  0  0
   26.6790   27.1290   35.4610 O   0  0  0  0  0
   25.7300   27.1060   38.2450 C   0  0  0  0  0
   26.9750   27.7320   38.2160 N   0  0  0  0  0
   25.2740   27.1240   39.5090 N   0  0  0  0  0
   26.0430   27.8750   40.3700 C   0  0  0  0  0
   26.0220   27.9620   41.5660 O   0  0  0  0  0
   27.1970   28.2450   39.5120 C   0  0  0  0  0
   23.9190   26.7210   39.8420 C   0  0  0  0  0
   23.7450   25.3260   40.3600 C   0  0  0  0  0
   22.8850   25.1160   41.1930 O   0  0  0  0  0
   28.3290   28.8220   39.9600 C   0  0  0  0  0
   29.4370   29.3700   39.1240 C   0  0  0  0  0
   29.5410   29.1030   37.7420 C   0  0  0  0  0
   30.4870   30.1100   39.8050 C   0  0  0  0  0
   30.7070   29.5460   37.0330 C   0  0  0  0  0
   31.6140   30.5630   39.0850 C   0  0  0  0  0
   31.7180   30.3000   37.7210 C   0  0  0  0  0
   32.8940   30.8040   36.9710 O   0  0  0  0  0
   24.5350   24.3830   39.8490 O   0  0  0  0  0
   23.4840   27.7930   37.3650 H   0  0  0  0  0
   24.5930   28.3040   36.2810 H   0  0  0  0  0
   24.4450   25.6040   37.4330 H   0  0  0  0  0
   26.6150   25.2700   36.3270 H   0  0  0  0  0
   24.5720   24.5670   35.1700 H   0  0  0  0  0
   24.4730   26.1730   34.3710 H   0  0  0  0  0
   25.8530   25.0780   34.0180 H   0  0  0  0  0
   27.1670   27.5120   36.1810 H   0  0  0  0  0
   23.5440   27.4120   40.6110 H   0  0  0  0  0
   23.3080   26.8180   38.9320 H   0  0  0  0  0
   24.3170   23.5430   40.2360 H   0  0  0  0  0
   28.4460   28.8950   41.0310 H   0  0  0  0  0
   28.7540   28.5730   37.2260 H   0  0  0  0  0
   30.4050   30.3130   40.8620 H   0  0  0  0  0
   30.8240   29.3130   35.9850 H   0  0  0  0  0
   32.3940   31.1120   39.5910 H   0  0  0  0  0
   33.4670   31.2790   37.5610 H   0  0  0  0  0
  1  2  1  0  0  0
  1 24  1  0  0  0
  1 25  1  0  0  0
  2  6  1  0  0  0
  2 26  1  0  0  0
  3  2  1  0  0  0
  3 27  1  0  0  0
  4  3  1  0  0  0
  4 28  1  0  0  0
  4 29  1  0  0  0
  4 30  1  0  0  0
  5  3  1  0  0  0
  5 31  1  0  0  0
  6  8  1  0  0  0
  7  6  2  0  0  0
  7 11  1  0  0  0
  8 12  1  0  0  0
  8  9  1  0  0  0
  9 10  2  0  0  0
 11 15  2  0  0  0
 11  9  1  0  0  0
 12 13  1  0  0  0
 12 32  1  0  0  0
 12 33  1  0  0  0
 13 14  2  0  0  0
 15 35  1  0  0  0
 16 18  1  0  0  0
 16 15  1  0  0  0
 17 16  2  0  0  0
 17 36  1  0  0  0
 18 37  1  0  0  0
 19 21  2  0  0  0
 19 17  1  0  0  0
 19 38  1  0  0  0
 20 18  2  0  0  0
 20 39  1  0  0  0
 21 20  1  0  0  0
 22 21  1  0  0  0
 22 40  1  0  0  0
 23 13  1  0  0  0
 23 34  1  0  0  0
M  END
$$$$
