@<TRIPOS>MOLECULE
CRO
   40    41     1     0     0
SMALL
NO_CHARGES

@<TRIPOS>ATOM
      1  N1        24.0770   27.5130   36.6100 N.3       1 CRO         0.0000
      2  CA1       25.0110   26.4780   37.0780 C.3       1 CRO         0.0000
      3  CB1       25.9310   26.0350   35.9300 C.3       1 CRO         0.0000
      4  CG1       25.1550   25.4220   34.7960 C.3       1 CRO         0.0000
      5  OG1       26.6790   27.1290   35.4610 O.3       1 CRO         0.0000
      6  C1        25.7300   27.1060   38.2450 C.2       1 CRO         0.0000
      7  N2        26.9750   27.7320   38.2160 N.2       1 CRO         0.0000
      8  N3        25.2740   27.1240   39.5090 N.am      1 CRO         0.0000
      9  C2        26.0430   27.8750   40.3700 C.2       1 CRO         0.0000
     10  O2        26.0220   27.9620   41.5660 O.2       1 CRO         0.0000
     11  CA2       27.1970   28.2450   39.5120 C.2       1 CRO         0.0000
     12  CA3       23.9190   26.7210   39.8420 C.3       1 CRO         0.0000
     13  C3        23.7450   25.3260   40.3600 C.2       1 CRO         0.0000
     14  O3        22.8850   25.1160   41.1930 O.2       1 CRO         0.0000
     15  CB2       28.3290   28.8220   39.9600 C.2       1 CRO         0.0000
     16  CG2       29.4370   29.3700   39.1240 C.ar      1 CRO         0.0000
     17  CD1       29.5410   29.1030   37.7420 C.ar      1 CRO         0.0000
     18  CD2       30.4870   30.1100   39.8050 C.ar      1 CRO         0.0000
     19  CE1       30.7070   29.5460   37.0330 C.ar      1 CRO         0.0000
     20  CE2       31.6140   30.5630   39.0850 C.ar      1 CRO         0.0000
     21  CZ        31.7180   30.3000   37.7210 C.ar      1 CRO         0.0000
     22  OH        32.8940   30.8040   36.9710 O.3       1 CRO         0.0000
     23  OXT       24.5350   24.3830   39.8490 O.3       1 CRO         0.0000
     24 HN11       23.4840   27.7930   37.3650 H         1 CRO         0.0000
     25  H2        24.5930   28.3040   36.2810 H         1 CRO         0.0000
     26  HA1       24.4450   25.6040   37.4330 H         1 CRO         0.0000
     27  HB1       26.6150   25.2700   36.3270 H         1 CRO         0.0000
     28 HG11       24.5720   24.5670   35.1700 H         1 CRO         0.0000
     29 HG12       24.4730   26.1730   34.3710 H         1 CRO         0.0000
     30 HG13       25.8530   25.0780   34.0180 H         1 CRO         0.0000
     31 HOG1       27.1670   27.5120   36.1810 H         1 CRO         0.0000
     32 HA31       23.5440   27.4120   40.6110 H         1 CRO         0.0000
     33 HA32       23.3080   26.8180   38.9320 H         1 CRO         0.0000
     34  HXT       24.3170   23.5430   40.2360 H         1 CRO         0.0000
     35  HB2       28.4460   28.8950   41.0310 H         1 CRO         0.0000
     36  HD1       28.7540   28.5730   37.2260 H         1 CRO         0.0000
     37  HD2       30.4050   30.3130   40.8620 H         1 CRO         0.0000
     38  HE1       30.8240   29.3130   35.9850 H         1 CRO         0.0000
     39  HE2       32.3940   31.1120   39.5910 H         1 CRO         0.0000
     40  HOH       33.4670   31.2790   37.5610 H         1 CRO         0.0000
@<TRIPOS>BOND
     1    1    2 1
     2    1   24 1
     3    1   25 1
     4    2    6 1
     5    2   26 1
     6    2    3 1
     7    3   27 1
     8    3    4 1
     9    4   28 1
    10    4   29 1
    11    4   30 1
    12    3    5 1
    13    5   31 1
    14    6    8 1
    15    6    7 2
    16    7   11 1
    17    8   12 1
    18    8    9 am
    19    9   10 2
    20   11   15 2
    21    9   11 1
    22   12   13 1
    23   12   32 1
    24   12   33 1
    25   13   14 2
    26   15   35 1
    27   16   18 ar
    28   15   16 1
    29   16   17 ar
    30   17   36 1
    31   18   37 1
    32   19   21 ar
    33   17   19 ar
    34   19   38 1
    35   18   20 ar
    36   20   39 1
    37   20   21 ar
    38   21   22 1
    39   22   40 1
    40   13   23 1
    41   23   34 1
@<TRIPOS>SUBSTRUCTURE
     1 CRO         1 GROUP 0 A     ****
