@<TRIPOS>MOLECULE
FBP
30   30    1
SMALL
USER_CHARGES


@<TRIPOS>ATOM
      1 P1         99.9250   23.1470   35.7990 P.3       1 FBP         0.0000 
      2 O1P       100.0690   22.4910   34.4160 O.co2     1 FBP         0.0000 
      3 O2P        99.1640   22.3390   36.7360 O.co2     1 FBP         0.0000 
      4 O3P        99.4360   24.5170   35.4750 O.co2     1 FBP         0.0000 
      5 O1        101.3300   23.2340   36.3570 O.3       1 FBP         0.0000 
      6 C1        102.3720   23.6190   35.4330 C.3       1 FBP         0.0000 
      7 C2        103.6020   23.7610   36.2710 C.3       1 FBP         0.0000 
      8 O2        103.2760   24.7310   37.2010 O.3       1 FBP         0.0000 
      9 C3        104.8600   24.2290   35.4850 C.3       1 FBP         0.0000 
     10 O3        104.6410   25.5610   34.9560 O.3       1 FBP         0.0000 
     11 C4        105.9270   24.0420   36.5900 C.3       1 FBP         0.0000 
     12 O4        107.3080   24.1880   36.1650 O.3       1 FBP         0.0000 
     13 C5        105.5020   22.6270   37.1840 C.3       1 FBP         0.0000 
     14 O5        104.0240   22.5260   36.9400 O.3       1 FBP         0.0000 
     15 C6        105.7810   22.5680   38.6760 C.3       1 FBP         0.0000 
     16 O6        105.4150   21.2960   39.3900 O.3       1 FBP         0.0000 
     17 P2        106.2130   20.0060   39.4580 P.3       1 FBP         0.0000 
     18 O4P       107.4480   20.2700   38.6570 O.co2     1 FBP         0.0000 
     19 O5P       105.2020   19.0560   38.8780 O.co2     1 FBP         0.0000 
     20 O6P       106.5820   19.6210   40.8370 O.co2     1 FBP         0.0000 
     21 H11       102.4908   22.8376   34.6680 H         1 FBP         0.0000 
     22 H12       102.1000   24.5683   34.9483 H         1 FBP         0.0000 
     23 HO2       102.9379   25.7227   36.8659 H         1 FBP         0.0000 
     24 H3        105.1463   23.7563   34.5339 H         1 FBP         0.0000 
     25 HO3       103.8890   25.7238   34.1699 H         1 FBP         0.0000 
     26 H4        106.0121   24.8714   37.3075 H         1 FBP         0.0000 
     27 HO4       107.6567   25.1439   35.7470 H         1 FBP         0.0000 
     28 H5        106.0298   21.7711   36.7380 H         1 FBP         0.0000 
     29 H61       106.8577   22.7069   38.8534 H         1 FBP         0.0000 
     30 H62       105.2196   23.3648   39.1858 H         1 FBP         0.0000 
@<TRIPOS>BOND
     1    1    2 2    
     2    1    3 1    
     3    1    4 1    
     4    1    5 1    
     5    5    6 1    
     6    6    7 1    
     7    6   21 1    
     8    6   22 1    
     9    7    8 1    
    10    7    9 1    
    11    7   14 1    
    12    8   23 1    
    13    9   10 1    
    14    9   11 1    
    15    9   24 1    
    16   10   25 1    
    17   11   12 1    
    18   11   13 1    
    19   11   26 1    
    20   12   27 1    
    21   13   14 1    
    22   13   15 1    
    23   13   28 1    
    24   15   16 1    
    25   15   29 1    
    26   15   30 1    
    27   16   17 1    
    28   17   18 2    
    29   17   19 1    
    30   17   20 1    
@<TRIPOS>SUBSTRUCTURE
     1 FBP         1 GROUP             0       ****    0 ROOT    
@<TRIPOS>MOLECULE
FBP
29   29    1
SMALL
USER_CHARGES


@<TRIPOS>ATOM
      1 P1         99.9250   23.1470   35.7990 P.3       1 FBP         0.0000 
      2 O1P       100.0690   22.4910   34.4160 O.co2     1 FBP         0.0000 
      3 O2P        99.1640   22.3390   36.7360 O.co2     1 FBP         0.0000 
      4 O3P        99.4360   24.5170   35.4750 O.co2     1 FBP         0.0000 
      5 O1        101.3300   23.2340   36.3570 O.3       1 FBP         0.0000 
      6 C1        102.3720   23.6190   35.4330 C.3       1 FBP         0.0000 
      7 C2        103.6020   23.7610   36.2710 C.3       1 FBP         0.0000 
      8 O2        103.2760   24.7310   37.2010 O.co2     1 FBP         0.0000 
      9 C3        104.8600   24.2290   35.4850 C.3       1 FBP         0.0000 
     10 O3        104.6410   25.5610   34.9560 O.3       1 FBP         0.0000 
     11 C4        105.9270   24.0420   36.5900 C.3       1 FBP         0.0000 
     12 O4        107.3080   24.1880   36.1650 O.3       1 FBP         0.0000 
     13 C5        105.5020   22.6270   37.1840 C.3       1 FBP         0.0000 
     14 O5        104.0240   22.5260   36.9400 O.3       1 FBP         0.0000 
     15 C6        105.7810   22.5680   38.6760 C.3       1 FBP         0.0000 
     16 O6        105.4150   21.2960   39.3900 O.3       1 FBP         0.0000 
     17 P2        106.2130   20.0060   39.4580 P.3       1 FBP         0.0000 
     18 O4P       107.4480   20.2700   38.6570 O.co2     1 FBP         0.0000 
     19 O5P       105.2020   19.0560   38.8780 O.co2     1 FBP         0.0000 
     20 O6P       106.5820   19.6210   40.8370 O.co2     1 FBP         0.0000 
     21 H11       102.4908   22.8376   34.6680 H         1 FBP         0.0000 
     22 H12       102.1000   24.5683   34.9483 H         1 FBP         0.0000 
     23 H3        105.1463   23.7563   34.5339 H         1 FBP         0.0000 
     24 HO3       103.8890   25.7238   34.1699 H         1 FBP         0.0000 
     25 H4        106.0121   24.8714   37.3075 H         1 FBP         0.0000 
     26 HO4       107.6567   25.1439   35.7470 H         1 FBP         0.0000 
     27 H5        106.0298   21.7711   36.7380 H         1 FBP         0.0000 
     28 H61       106.8577   22.7069   38.8534 H         1 FBP         0.0000 
     29 H62       105.2196   23.3648   39.1858 H         1 FBP         0.0000 
@<TRIPOS>BOND
     1    1    2 2    
     2    1    3 1    
     3    1    4 1    
     4    1    5 1    
     5    5    6 1    
     6    6    7 1    
     7    6   21 1    
     8    6   22 1    
     9    7    8 1    
    10    7    9 1    
    11    7   14 1    
    12    9   10 1    
    13    9   11 1    
    14    9   23 1    
    15   10   24 1    
    16   11   12 1    
    17   11   13 1    
    18   11   25 1    
    19   12   26 1    
    20   13   14 1    
    21   13   15 1    
    22   13   27 1    
    23   15   16 1    
    24   15   28 1    
    25   15   29 1    
    26   16   17 1    
    27   17   18 2    
    28   17   19 1    
    29   17   20 1    
@<TRIPOS>SUBSTRUCTURE
     1 FBP         1 GROUP             0       ****    0 ROOT    
@<TRIPOS>MOLECULE
FBP
29   29    1
SMALL
USER_CHARGES


@<TRIPOS>ATOM
      1 P1         99.9250   23.1470   35.7990 P.3       1 FBP         0.0000 
      2 O1P       100.0690   22.4910   34.4160 O.co2     1 FBP         0.0000 
      3 O2P        99.1640   22.3390   36.7360 O.co2     1 FBP         0.0000 
      4 O3P        99.4360   24.5170   35.4750 O.co2     1 FBP         0.0000 
      5 O1        101.3300   23.2340   36.3570 O.3       1 FBP         0.0000 
      6 C1        102.3720   23.6190   35.4330 C.3       1 FBP         0.0000 
      7 C2        103.6020   23.7610   36.2710 C.3       1 FBP         0.0000 
      8 O2        103.2760   24.7310   37.2010 O.3       1 FBP         0.0000 
      9 C3        104.8600   24.2290   35.4850 C.3       1 FBP         0.0000 
     10 O3        104.6410   25.5610   34.9560 O.co2     1 FBP         0.0000 
     11 C4        105.9270   24.0420   36.5900 C.3       1 FBP         0.0000 
     12 O4        107.3080   24.1880   36.1650 O.3       1 FBP         0.0000 
     13 C5        105.5020   22.6270   37.1840 C.3       1 FBP         0.0000 
     14 O5        104.0240   22.5260   36.9400 O.3       1 FBP         0.0000 
     15 C6        105.7810   22.5680   38.6760 C.3       1 FBP         0.0000 
     16 O6        105.4150   21.2960   39.3900 O.3       1 FBP         0.0000 
     17 P2        106.2130   20.0060   39.4580 P.3       1 FBP         0.0000 
     18 O4P       107.4480   20.2700   38.6570 O.co2     1 FBP         0.0000 
     19 O5P       105.2020   19.0560   38.8780 O.co2     1 FBP         0.0000 
     20 O6P       106.5820   19.6210   40.8370 O.co2     1 FBP         0.0000 
     21 H11       102.4908   22.8376   34.6680 H         1 FBP         0.0000 
     22 H12       102.1000   24.5683   34.9483 H         1 FBP         0.0000 
     23 HO2       102.9379   25.7227   36.8659 H         1 FBP         0.0000 
     24 H3        105.1463   23.7563   34.5339 H         1 FBP         0.0000 
     25 H4        106.0121   24.8714   37.3075 H         1 FBP         0.0000 
     26 HO4       107.6567   25.1439   35.7470 H         1 FBP         0.0000 
     27 H5        106.0298   21.7711   36.7380 H         1 FBP         0.0000 
     28 H61       106.8577   22.7069   38.8534 H         1 FBP         0.0000 
     29 H62       105.2196   23.3648   39.1858 H         1 FBP         0.0000 
@<TRIPOS>BOND
     1    1    2 2    
     2    1    3 1    
     3    1    4 1    
     4    1    5 1    
     5    5    6 1    
     6    6    7 1    
     7    6   21 1    
     8    6   22 1    
     9    7    8 1    
    10    7    9 1    
    11    7   14 1    
    12    8   23 1    
    13    9   10 1    
    14    9   11 1    
    15    9   24 1    
    16   11   12 1    
    17   11   13 1    
    18   11   25 1    
    19   12   26 1    
    20   13   14 1    
    21   13   15 1    
    22   13   27 1    
    23   15   16 1    
    24   15   28 1    
    25   15   29 1    
    26   16   17 1    
    27   17   18 2    
    28   17   19 1    
    29   17   20 1    
@<TRIPOS>SUBSTRUCTURE
     1 FBP         1 GROUP             0       ****    0 ROOT    
@<TRIPOS>MOLECULE
FBP
29   29    1
SMALL
USER_CHARGES


@<TRIPOS>ATOM
      1 P1         99.9250   23.1470   35.7990 P.3       1 FBP         0.0000 
      2 O1P       100.0690   22.4910   34.4160 O.co2     1 FBP         0.0000 
      3 O2P        99.1640   22.3390   36.7360 O.co2     1 FBP         0.0000 
      4 O3P        99.4360   24.5170   35.4750 O.co2     1 FBP         0.0000 
      5 O1        101.3300   23.2340   36.3570 O.3       1 FBP         0.0000 
      6 C1        102.3720   23.6190   35.4330 C.3       1 FBP         0.0000 
      7 C2        103.6020   23.7610   36.2710 C.3       1 FBP         0.0000 
      8 O2        103.2760   24.7310   37.2010 O.3       1 FBP         0.0000 
      9 C3        104.8600   24.2290   35.4850 C.3       1 FBP         0.0000 
     10 O3        104.6410   25.5610   34.9560 O.3       1 FBP         0.0000 
     11 C4        105.9270   24.0420   36.5900 C.3       1 FBP         0.0000 
     12 O4        107.3080   24.1880   36.1650 O.co2     1 FBP         0.0000 
     13 C5        105.5020   22.6270   37.1840 C.3       1 FBP         0.0000 
     14 O5        104.0240   22.5260   36.9400 O.3       1 FBP         0.0000 
     15 C6        105.7810   22.5680   38.6760 C.3       1 FBP         0.0000 
     16 O6        105.4150   21.2960   39.3900 O.3       1 FBP         0.0000 
     17 P2        106.2130   20.0060   39.4580 P.3       1 FBP         0.0000 
     18 O4P       107.4480   20.2700   38.6570 O.co2     1 FBP         0.0000 
     19 O5P       105.2020   19.0560   38.8780 O.co2     1 FBP         0.0000 
     20 O6P       106.5820   19.6210   40.8370 O.co2     1 FBP         0.0000 
     21 H11       102.4908   22.8376   34.6680 H         1 FBP         0.0000 
     22 H12       102.1000   24.5683   34.9483 H         1 FBP         0.0000 
     23 HO2       102.9379   25.7227   36.8659 H         1 FBP         0.0000 
     24 H3        105.1463   23.7563   34.5339 H         1 FBP         0.0000 
     25 HO3       103.8890   25.7238   34.1699 H         1 FBP         0.0000 
     26 H4        106.0121   24.8714   37.3075 H         1 FBP         0.0000 
     27 H5        106.0298   21.7711   36.7380 H         1 FBP         0.0000 
     28 H61       106.8577   22.7069   38.8534 H         1 FBP         0.0000 
     29 H62       105.2196   23.3648   39.1858 H         1 FBP         0.0000 
@<TRIPOS>BOND
     1    1    2 2    
     2    1    3 1    
     3    1    4 1    
     4    1    5 1    
     5    5    6 1    
     6    6    7 1    
     7    6   21 1    
     8    6   22 1    
     9    7    8 1    
    10    7    9 1    
    11    7   14 1    
    12    8   23 1    
    13    9   10 1    
    14    9   11 1    
    15    9   24 1    
    16   10   25 1    
    17   11   12 1    
    18   11   13 1    
    19   11   26 1    
    20   13   14 1    
    21   13   15 1    
    22   13   27 1    
    23   15   16 1    
    24   15   28 1    
    25   15   29 1    
    26   16   17 1    
    27   17   18 2    
    28   17   19 1    
    29   17   20 1    
@<TRIPOS>SUBSTRUCTURE
     1 FBP         1 GROUP             0       ****    0 ROOT    
@<TRIPOS>MOLECULE
FBP
31   31    1
SMALL
USER_CHARGES


@<TRIPOS>ATOM
      1 P1         99.9250   23.1470   35.7990 P.3       1 FBP         0.0000 
      2 O1P       100.0690   22.4910   34.4160 O.co2     1 FBP         0.0000 
      3 O2P        99.1640   22.3390   36.7360 O.co2     1 FBP         0.0000 
      4 O3P        99.4360   24.5170   35.4750 O.co2     1 FBP         0.0000 
      5 O1        101.3300   23.2340   36.3570 O.3       1 FBP         0.0000 
      6 C1        102.3720   23.6190   35.4330 C.3       1 FBP         0.0000 
      7 C2        103.6020   23.7610   36.2710 C.3       1 FBP         0.0000 
      8 O2        103.2760   24.7310   37.2010 O.3       1 FBP         0.0000 
      9 C3        104.8600   24.2290   35.4850 C.3       1 FBP         0.0000 
     10 O3        104.6410   25.5610   34.9560 O.3       1 FBP         0.0000 
     11 C4        105.9270   24.0420   36.5900 C.3       1 FBP         0.0000 
     12 O4        107.3080   24.1880   36.1650 O.3       1 FBP         0.0000 
     13 C5        105.5020   22.6270   37.1840 C.3       1 FBP         0.0000 
     14 O5        104.0240   22.5260   36.9400 O.3       1 FBP         0.0000 
     15 C6        105.7810   22.5680   38.6760 C.3       1 FBP         0.0000 
     16 O6        105.4150   21.2960   39.3900 O.3       1 FBP         0.0000 
     17 P2        106.2130   20.0060   39.4580 P.3       1 FBP         0.0000 
     18 O4P       107.4480   20.2700   38.6570 O.co2     1 FBP         0.0000 
     19 O5P       105.2020   19.0560   38.8780 O.co2     1 FBP         0.0000 
     20 O6P       106.5820   19.6210   40.8370 O.3       1 FBP         0.0000 
     21 H11       102.4908   22.8376   34.6680 H         1 FBP         0.0000 
     22 H12       102.1000   24.5683   34.9483 H         1 FBP         0.0000 
     23 HO2       102.9379   25.7227   36.8659 H         1 FBP         0.0000 
     24 H3        105.1463   23.7563   34.5339 H         1 FBP         0.0000 
     25 HO3       103.8890   25.7238   34.1699 H         1 FBP         0.0000 
     26 H4        106.0121   24.8714   37.3075 H         1 FBP         0.0000 
     27 HO4       107.6567   25.1439   35.7470 H         1 FBP         0.0000 
     28 H5        106.0298   21.7711   36.7380 H         1 FBP         0.0000 
     29 H61       106.8577   22.7069   38.8534 H         1 FBP         0.0000 
     30 H62       105.2196   23.3648   39.1858 H         1 FBP         0.0000 
     31 HOP6      107.3140   20.2204   41.3981 H         1 FBP         0.0000 
@<TRIPOS>BOND
     1    1    2 2    
     2    1    3 1    
     3    1    4 1    
     4    1    5 1    
     5    5    6 1    
     6    6    7 1    
     7    6   21 1    
     8    6   22 1    
     9    7    8 1    
    10    7    9 1    
    11    7   14 1    
    12    8   23 1    
    13    9   10 1    
    14    9   11 1    
    15    9   24 1    
    16   10   25 1    
    17   11   12 1    
    18   11   13 1    
    19   11   26 1    
    20   12   27 1    
    21   13   14 1    
    22   13   15 1    
    23   13   28 1    
    24   15   16 1    
    25   15   29 1    
    26   15   30 1    
    27   16   17 1    
    28   17   18 2    
    29   17   19 1    
    30   17   20 1    
    31   20   31 1    
@<TRIPOS>SUBSTRUCTURE
     1 FBP         1 GROUP             0       ****    0 ROOT    
@<TRIPOS>MOLECULE
FBP
31   31    1
SMALL
USER_CHARGES


@<TRIPOS>ATOM
      1 P1         99.9250   23.1470   35.7990 P.3       1 FBP         0.0000 
      2 O1P       100.0690   22.4910   34.4160 O.co2     1 FBP         0.0000 
      3 O2P        99.1640   22.3390   36.7360 O.co2     1 FBP         0.0000 
      4 O3P        99.4360   24.5170   35.4750 O.3       1 FBP         0.0000 
      5 O1        101.3300   23.2340   36.3570 O.3       1 FBP         0.0000 
      6 C1        102.3720   23.6190   35.4330 C.3       1 FBP         0.0000 
      7 C2        103.6020   23.7610   36.2710 C.3       1 FBP         0.0000 
      8 O2        103.2760   24.7310   37.2010 O.3       1 FBP         0.0000 
      9 C3        104.8600   24.2290   35.4850 C.3       1 FBP         0.0000 
     10 O3        104.6410   25.5610   34.9560 O.3       1 FBP         0.0000 
     11 C4        105.9270   24.0420   36.5900 C.3       1 FBP         0.0000 
     12 O4        107.3080   24.1880   36.1650 O.3       1 FBP         0.0000 
     13 C5        105.5020   22.6270   37.1840 C.3       1 FBP         0.0000 
     14 O5        104.0240   22.5260   36.9400 O.3       1 FBP         0.0000 
     15 C6        105.7810   22.5680   38.6760 C.3       1 FBP         0.0000 
     16 O6        105.4150   21.2960   39.3900 O.3       1 FBP         0.0000 
     17 P2        106.2130   20.0060   39.4580 P.3       1 FBP         0.0000 
     18 O4P       107.4480   20.2700   38.6570 O.co2     1 FBP         0.0000 
     19 O5P       105.2020   19.0560   38.8780 O.co2     1 FBP         0.0000 
     20 O6P       106.5820   19.6210   40.8370 O.co2     1 FBP         0.0000 
     21 HOP3       98.4285   24.6566   35.0561 H         1 FBP         0.0000 
     22 H11       102.4908   22.8376   34.6680 H         1 FBP         0.0000 
     23 H12       102.1000   24.5683   34.9483 H         1 FBP         0.0000 
     24 HO2       102.9379   25.7227   36.8659 H         1 FBP         0.0000 
     25 H3        105.1463   23.7563   34.5339 H         1 FBP         0.0000 
     26 HO3       103.8890   25.7238   34.1699 H         1 FBP         0.0000 
     27 H4        106.0121   24.8714   37.3075 H         1 FBP         0.0000 
     28 HO4       107.6567   25.1439   35.7470 H         1 FBP         0.0000 
     29 H5        106.0298   21.7711   36.7380 H         1 FBP         0.0000 
     30 H61       106.8577   22.7069   38.8534 H         1 FBP         0.0000 
     31 H62       105.2196   23.3648   39.1858 H         1 FBP         0.0000 
@<TRIPOS>BOND
     1    1    2 2    
     2    1    3 1    
     3    1    4 1    
     4    1    5 1    
     5    4   21 1    
     6    5    6 1    
     7    6    7 1    
     8    6   22 1    
     9    6   23 1    
    10    7    8 1    
    11    7    9 1    
    12    7   14 1    
    13    8   24 1    
    14    9   10 1    
    15    9   11 1    
    16    9   25 1    
    17   10   26 1    
    18   11   12 1    
    19   11   13 1    
    20   11   27 1    
    21   12   28 1    
    22   13   14 1    
    23   13   15 1    
    24   13   29 1    
    25   15   16 1    
    26   15   30 1    
    27   15   31 1    
    28   16   17 1    
    29   17   18 2    
    30   17   19 1    
    31   17   20 1    
@<TRIPOS>SUBSTRUCTURE
     1 FBP         1 GROUP             0       ****    0 ROOT    
