@<TRIPOS>MOLECULE
NAD
70   74    1
SMALL
USER_CHARGES


@<TRIPOS>ATOM
      1 PA         19.2220   51.6360  -19.1860 P.3       1 NAD         0.0000 
      2 O1A        18.3400   51.7970  -20.3580 O.co2     1 NAD         0.0000 
      3 O2A        18.8850   52.5330  -18.0510 O.co2     1 NAD         0.0000 
      4 O5B        20.6820   52.1340  -19.5960 O.3       1 NAD         0.0000 
      5 C5B        21.4290   51.5430  -20.6790 C.3       1 NAD         0.0000 
      6 C4B        22.5290   52.5590  -20.8420 C.3       1 NAD         0.0000 
      7 O4B        23.4790   52.1310  -21.8670 O.3       1 NAD         0.0000 
      8 C3B        22.0160   53.9110  -21.3390 C.3       1 NAD         0.0000 
      9 O3B        22.6830   54.9990  -20.6450 O.3       1 NAD         0.0000 
     10 C2B        22.3910   53.7990  -22.8110 C.3       1 NAD         0.0000 
     11 O2B        22.4990   55.1030  -23.3910 O.3       1 NAD         0.0000 
     12 C1B        23.7870   53.1930  -22.6500 C.3       1 NAD         0.0000 
     13 N9A        24.2320   52.6270  -23.8880 N.pl3     1 NAD         0.0000 
     14 C8A        23.4560   52.0620  -24.8440 C.ar      1 NAD         0.0000 
     15 N7A        24.1630   51.5750  -25.8700 N.2       1 NAD         0.0000 
     16 C5A        25.4680   51.8990  -25.5240 C.ar      1 NAD         0.0000 
     17 C6A        26.6910   51.6480  -26.1780 C.ar      1 NAD         0.0000 
     18 N6A        26.8140   51.0280  -27.3490 N.pl3     1 NAD         0.0000 
     19 N1A        27.8150   52.0740  -25.5590 N.ar      1 NAD         0.0000 
     20 C2A        27.6880   52.6870  -24.3510 C.ar      1 NAD         0.0000 
     21 N3A        26.5990   52.9420  -23.6710 N.ar      1 NAD         0.0000 
     22 C4A        25.5200   52.5410  -24.3140 C.ar      1 NAD         0.0000 
     23 O3         19.2770   50.0880  -18.7990 O.3       1 NAD         0.0000 
     24 PN         19.6010   49.4760  -17.3370 P.3       1 NAD         0.0000 
     25 O1N        18.4110   49.2370  -16.4750 O.2       1 NAD         0.0000 
     26 O2N        20.6660   50.3020  -16.6790 O.3       1 NAD         0.0000 
     27 O5D        20.1090   48.0460  -17.8670 O.3       1 NAD         0.0000 
     28 C5D        21.4660   47.9040  -18.3990 C.3       1 NAD         0.0000 
     29 C4D        21.6630   46.4390  -18.7180 C.3       1 NAD         0.0000 
     30 O4D        21.5490   45.6870  -17.4900 O.3       1 NAD         0.0000 
     31 C3D        20.6660   45.8280  -19.7060 C.3       1 NAD         0.0000 
     32 O3D        21.2600   44.6920  -20.3570 O.3       1 NAD         0.0000 
     33 C2D        19.6420   45.2510  -18.7410 C.3       1 NAD         0.0000 
     34 O2D        18.8840   44.1960  -19.3620 O.3       1 NAD         0.0000 
     35 C1D        20.5610   44.6890  -17.6800 C.3       1 NAD         0.0000 
     36 N1N        19.8780   44.3750  -16.4350 N.pl3     1 NAD         0.0000 
     37 C2N        19.0560   45.3180  -15.8240 C.2       1 NAD         0.0000 
     38 C3N        18.4130   45.0640  -14.5440 C.2       1 NAD         0.0000 
     39 C7N        17.7320   46.2170  -13.8990 C.2       1 NAD         0.0000 
     40 O7N        17.2370   45.9260  -12.7980 O.2       1 NAD         0.0000 
     41 N7N        17.6580   47.4710  -14.4380 N.am      1 NAD         0.0000 
     42 C4N        18.5660   43.7530  -13.9120 C.3       1 NAD         0.0000 
     43 C5N        19.4710   42.7970  -14.6370 C.2       1 NAD         0.0000 
     44 C6N        20.0370   43.1270  -15.7860 C.2       1 NAD         0.0000 
     45 H51A       21.7870   50.5476  -20.3772 H         1 NAD         0.0000 
     46 H52A       20.7805   51.4471  -21.5623 H         1 NAD         0.0000 
     47 H4B        23.0104   52.6258  -19.8552 H         1 NAD         0.0000 
     48 H3B        20.9629   54.1656  -21.1487 H         1 NAD         0.0000 
     49 HO3A       22.4862   55.1726  -19.5768 H         1 NAD         0.0000 
     50 H2B        21.6787   53.2879  -23.4754 H         1 NAD         0.0000 
     51 HO2A       21.5928   55.6962  -23.5832 H         1 NAD         0.0000 
     52 H1B        24.5854   53.8411  -22.2594 H         1 NAD         0.0000 
     53 H8A        22.3550   52.0040  -24.7920 H         1 NAD         0.0000 
     54 H61A       25.9188   50.6693  -27.8781 H         1 NAD         0.0000 
     55 H62A       27.8109   50.8742  -27.7879 H         1 NAD         0.0000 
     56 H2A        28.6070   53.0290  -23.8460 H         1 NAD         0.0000 
     57 H51N       21.5702   48.5174  -19.3062 H         1 NAD         0.0000 
     58 H52N       22.1927   48.2392  -17.6443 H         1 NAD         0.0000 
     59 H4D        22.6719   46.3603  -19.1492 H         1 NAD         0.0000 
     60 H3D        20.3190   46.5024  -20.5028 H         1 NAD         0.0000 
     61 HO3N       22.0441   44.8398  -21.1142 H         1 NAD         0.0000 
     62 H2D        18.8576   45.9394  -18.3935 H         1 NAD         0.0000 
     63 HO2N       18.1638   44.4321  -20.1593 H         1 NAD         0.0000 
     64 H1D        21.0305   43.7362  -17.9660 H         1 NAD         0.0000 
     65 H2N        18.8987   46.2779  -16.3376 H         1 NAD         0.0000 
     66 H71N       18.1138   47.6763  -15.4178 H         1 NAD         0.0000 
     67 H72N       17.1426   48.2748  -13.8919 H         1 NAD         0.0000 
     68 H4N        18.0440   43.5070  -12.9710 H         1 NAD         0.0000 
     69 H5N        19.6594   41.8074  -14.1953 H         1 NAD         0.0000 
     70 H6N        20.6855   42.4069  -16.3065 H         1 NAD         0.0000 
@<TRIPOS>BOND
     1    1    2 2    
     2    1    3 1    
     3    1    4 1    
     4    1   23 1    
     5    4    5 1    
     6    5    6 1    
     7    5   45 1    
     8    5   46 1    
     9    6    7 1    
    10    6    8 1    
    11    6   47 1    
    12    7   12 1    
    13    8    9 1    
    14    8   10 1    
    15    8   48 1    
    16    9   49 1    
    17   10   11 1    
    18   10   12 1    
    19   10   50 1    
    20   11   51 1    
    21   12   13 1    
    22   12   52 1    
    23   13   14 ar   
    24   13   22 ar   
    25   14   15 ar   
    26   14   53 1    
    27   15   16 ar   
    28   16   17 ar   
    29   16   22 ar   
    30   17   18 1    
    31   17   19 ar   
    32   18   54 1    
    33   18   55 1    
    34   19   20 ar   
    35   20   21 ar   
    36   20   56 1    
    37   21   22 ar   
    38   23   24 1    
    39   24   25 2    
    40   24   26 1    
    41   24   27 1    
    42   27   28 1    
    43   28   29 1    
    44   28   57 1    
    45   28   58 1    
    46   29   30 1    
    47   29   31 1    
    48   29   59 1    
    49   30   35 1    
    50   31   32 1    
    51   31   33 1    
    52   31   60 1    
    53   32   61 1    
    54   33   34 1    
    55   33   35 1    
    56   33   62 1    
    57   34   63 1    
    58   35   36 1    
    59   35   64 1    
    60   36   37 1    
    61   36   44 1    
    62   37   38 2    
    63   37   65 1    
    64   38   39 1    
    65   38   42 1    
    66   39   40 2    
    67   39   41 am   BACKBONE|DICT|INTERRES
    68   41   66 1    
    69   41   67 1    
    70   42   43 1    
    71   42   68 1    
    72   43   44 2    
    73   43   69 1    
    74   44   70 1    
@<TRIPOS>SUBSTRUCTURE
     1 NAD         1 GROUP             0       ****    0 ROOT    
@<TRIPOS>MOLECULE
NAD
71   75    1
SMALL
USER_CHARGES


@<TRIPOS>ATOM
      1 PA         19.2220   51.6360  -19.1860 P.3       1 NAD         0.0000 
      2 O1A        18.3400   51.7970  -20.3580 O.co2     1 NAD         0.0000 
      3 O2A        18.8850   52.5330  -18.0510 O.co2     1 NAD         0.0000 
      4 O5B        20.6820   52.1340  -19.5960 O.3       1 NAD         0.0000 
      5 C5B        21.4290   51.5430  -20.6790 C.3       1 NAD         0.0000 
      6 C4B        22.5290   52.5590  -20.8420 C.3       1 NAD         0.0000 
      7 O4B        23.4790   52.1310  -21.8670 O.3       1 NAD         0.0000 
      8 C3B        22.0160   53.9110  -21.3390 C.3       1 NAD         0.0000 
      9 O3B        22.6830   54.9990  -20.6450 O.3       1 NAD         0.0000 
     10 C2B        22.3910   53.7990  -22.8110 C.3       1 NAD         0.0000 
     11 O2B        22.4990   55.1030  -23.3910 O.3       1 NAD         0.0000 
     12 C1B        23.7870   53.1930  -22.6500 C.3       1 NAD         0.0000 
     13 N9A        24.2320   52.6270  -23.8880 N.pl3     1 NAD         0.0000 
     14 C8A        23.4560   52.0620  -24.8440 C.ar      1 NAD         0.0000 
     15 N7A        24.1630   51.5750  -25.8700 N.pl3     1 NAD         0.0000 
     16 C5A        25.4680   51.8990  -25.5240 C.ar      1 NAD         0.0000 
     17 C6A        26.6910   51.6480  -26.1780 C.ar      1 NAD         0.0000 
     18 N6A        26.8140   51.0280  -27.3490 N.pl3     1 NAD         0.0000 
     19 N1A        27.8150   52.0740  -25.5590 N.ar      1 NAD         0.0000 
     20 C2A        27.6880   52.6870  -24.3510 C.ar      1 NAD         0.0000 
     21 N3A        26.5990   52.9420  -23.6710 N.ar      1 NAD         0.0000 
     22 C4A        25.5200   52.5410  -24.3140 C.ar      1 NAD         0.0000 
     23 O3         19.2770   50.0880  -18.7990 O.3       1 NAD         0.0000 
     24 PN         19.6010   49.4760  -17.3370 P.3       1 NAD         0.0000 
     25 O1N        18.4110   49.2370  -16.4750 O.2       1 NAD         0.0000 
     26 O2N        20.6660   50.3020  -16.6790 O.3       1 NAD         0.0000 
     27 O5D        20.1090   48.0460  -17.8670 O.3       1 NAD         0.0000 
     28 C5D        21.4660   47.9040  -18.3990 C.3       1 NAD         0.0000 
     29 C4D        21.6630   46.4390  -18.7180 C.3       1 NAD         0.0000 
     30 O4D        21.5490   45.6870  -17.4900 O.3       1 NAD         0.0000 
     31 C3D        20.6660   45.8280  -19.7060 C.3       1 NAD         0.0000 
     32 O3D        21.2600   44.6920  -20.3570 O.3       1 NAD         0.0000 
     33 C2D        19.6420   45.2510  -18.7410 C.3       1 NAD         0.0000 
     34 O2D        18.8840   44.1960  -19.3620 O.3       1 NAD         0.0000 
     35 C1D        20.5610   44.6890  -17.6800 C.3       1 NAD         0.0000 
     36 N1N        19.8780   44.3750  -16.4350 N.pl3     1 NAD         0.0000 
     37 C2N        19.0560   45.3180  -15.8240 C.2       1 NAD         0.0000 
     38 C3N        18.4130   45.0640  -14.5440 C.2       1 NAD         0.0000 
     39 C7N        17.7320   46.2170  -13.8990 C.2       1 NAD         0.0000 
     40 O7N        17.2370   45.9260  -12.7980 O.2       1 NAD         0.0000 
     41 N7N        17.6580   47.4710  -14.4380 N.am      1 NAD         0.0000 
     42 C4N        18.5660   43.7530  -13.9120 C.3       1 NAD         0.0000 
     43 C5N        19.4710   42.7970  -14.6370 C.2       1 NAD         0.0000 
     44 C6N        20.0370   43.1270  -15.7860 C.2       1 NAD         0.0000 
     45 H51A       21.7870   50.5476  -20.3772 H         1 NAD         0.0000 
     46 H52A       20.7805   51.4471  -21.5623 H         1 NAD         0.0000 
     47 H4B        23.0104   52.6258  -19.8552 H         1 NAD         0.0000 
     48 H3B        20.9629   54.1656  -21.1487 H         1 NAD         0.0000 
     49 HO3A       22.4862   55.1726  -19.5768 H         1 NAD         0.0000 
     50 H2B        21.6787   53.2879  -23.4754 H         1 NAD         0.0000 
     51 HO2A       21.5928   55.6962  -23.5832 H         1 NAD         0.0000 
     52 H1B        24.5854   53.8411  -22.2594 H         1 NAD         0.0000 
     53 H8A        22.3550   52.0040  -24.7920 H         1 NAD         0.0000 
     54 H61A       25.9188   50.6693  -27.8781 H         1 NAD         0.0000 
     55 H62A       27.8109   50.8742  -27.7879 H         1 NAD         0.0000 
     56 H2A        28.6070   53.0290  -23.8460 H         1 NAD         0.0000 
     57 H51N       21.5702   48.5174  -19.3062 H         1 NAD         0.0000 
     58 H52N       22.1927   48.2392  -17.6443 H         1 NAD         0.0000 
     59 H4D        22.6719   46.3603  -19.1492 H         1 NAD         0.0000 
     60 H3D        20.3190   46.5024  -20.5028 H         1 NAD         0.0000 
     61 HO3N       22.0441   44.8398  -21.1142 H         1 NAD         0.0000 
     62 H2D        18.8576   45.9394  -18.3935 H         1 NAD         0.0000 
     63 HO2N       18.1638   44.4321  -20.1593 H         1 NAD         0.0000 
     64 H1D        21.0305   43.7362  -17.9660 H         1 NAD         0.0000 
     65 H2N        18.8987   46.2779  -16.3376 H         1 NAD         0.0000 
     66 H71N       18.1138   47.6763  -15.4178 H         1 NAD         0.0000 
     67 H72N       17.1426   48.2748  -13.8919 H         1 NAD         0.0000 
     68 H4N        18.0440   43.5070  -12.9710 H         1 NAD         0.0000 
     69 H5N        19.6594   41.8074  -14.1953 H         1 NAD         0.0000 
     70 H6N        20.6855   42.4069  -16.3065 H         1 NAD         0.0000 
     71 H71        23.6495   51.0684  -26.7005 H         1 NAD         0.0000 
@<TRIPOS>BOND
     1    1    2 2    
     2    1    3 1    
     3    1    4 1    
     4    1   23 1    
     5    4    5 1    
     6    5    6 1    
     7    5   45 1    
     8    5   46 1    
     9    6    7 1    
    10    6    8 1    
    11    6   47 1    
    12    7   12 1    
    13    8    9 1    
    14    8   10 1    
    15    8   48 1    
    16    9   49 1    
    17   10   11 1    
    18   10   12 1    
    19   10   50 1    
    20   11   51 1    
    21   12   13 1    
    22   12   52 1    
    23   13   14 ar   
    24   13   22 ar   
    25   14   15 ar   
    26   14   53 1    
    27   15   16 ar   
    28   15   71 1    
    29   16   17 ar   
    30   16   22 ar   
    31   17   18 1    
    32   17   19 ar   
    33   18   54 1    
    34   18   55 1    
    35   19   20 ar   
    36   20   21 ar   
    37   20   56 1    
    38   21   22 ar   
    39   23   24 1    
    40   24   25 2    
    41   24   26 1    
    42   24   27 1    
    43   27   28 1    
    44   28   29 1    
    45   28   57 1    
    46   28   58 1    
    47   29   30 1    
    48   29   31 1    
    49   29   59 1    
    50   30   35 1    
    51   31   32 1    
    52   31   33 1    
    53   31   60 1    
    54   32   61 1    
    55   33   34 1    
    56   33   35 1    
    57   33   62 1    
    58   34   63 1    
    59   35   36 1    
    60   35   64 1    
    61   36   37 1    
    62   36   44 1    
    63   37   38 2    
    64   37   65 1    
    65   38   39 1    
    66   38   42 1    
    67   39   40 2    
    68   39   41 am   BACKBONE|DICT|INTERRES
    69   41   66 1    
    70   41   67 1    
    71   42   43 1    
    72   42   68 1    
    73   43   44 2    
    74   43   69 1    
    75   44   70 1    
@<TRIPOS>SUBSTRUCTURE
     1 NAD         1 GROUP             0       ****    0 ROOT    
@<TRIPOS>MOLECULE
NAD
71   75    1
SMALL
USER_CHARGES


@<TRIPOS>ATOM
      1 PA         19.2220   51.6360  -19.1860 P.3       1 NAD         0.0000 
      2 O1A        18.3400   51.7970  -20.3580 O.2       1 NAD         0.0000 
      3 O2A        18.8850   52.5330  -18.0510 O.3       1 NAD         0.0000 
      4 O5B        20.6820   52.1340  -19.5960 O.3       1 NAD         0.0000 
      5 C5B        21.4290   51.5430  -20.6790 C.3       1 NAD         0.0000 
      6 C4B        22.5290   52.5590  -20.8420 C.3       1 NAD         0.0000 
      7 O4B        23.4790   52.1310  -21.8670 O.3       1 NAD         0.0000 
      8 C3B        22.0160   53.9110  -21.3390 C.3       1 NAD         0.0000 
      9 O3B        22.6830   54.9990  -20.6450 O.3       1 NAD         0.0000 
     10 C2B        22.3910   53.7990  -22.8110 C.3       1 NAD         0.0000 
     11 O2B        22.4990   55.1030  -23.3910 O.3       1 NAD         0.0000 
     12 C1B        23.7870   53.1930  -22.6500 C.3       1 NAD         0.0000 
     13 N9A        24.2320   52.6270  -23.8880 N.pl3     1 NAD         0.0000 
     14 C8A        23.4560   52.0620  -24.8440 C.ar      1 NAD         0.0000 
     15 N7A        24.1630   51.5750  -25.8700 N.2       1 NAD         0.0000 
     16 C5A        25.4680   51.8990  -25.5240 C.ar      1 NAD         0.0000 
     17 C6A        26.6910   51.6480  -26.1780 C.ar      1 NAD         0.0000 
     18 N6A        26.8140   51.0280  -27.3490 N.pl3     1 NAD         0.0000 
     19 N1A        27.8150   52.0740  -25.5590 N.ar      1 NAD         0.0000 
     20 C2A        27.6880   52.6870  -24.3510 C.ar      1 NAD         0.0000 
     21 N3A        26.5990   52.9420  -23.6710 N.ar      1 NAD         0.0000 
     22 C4A        25.5200   52.5410  -24.3140 C.ar      1 NAD         0.0000 
     23 O3         19.2770   50.0880  -18.7990 O.3       1 NAD         0.0000 
     24 PN         19.6010   49.4760  -17.3370 P.3       1 NAD         0.0000 
     25 O1N        18.4110   49.2370  -16.4750 O.2       1 NAD         0.0000 
     26 O2N        20.6660   50.3020  -16.6790 O.3       1 NAD         0.0000 
     27 O5D        20.1090   48.0460  -17.8670 O.3       1 NAD         0.0000 
     28 C5D        21.4660   47.9040  -18.3990 C.3       1 NAD         0.0000 
     29 C4D        21.6630   46.4390  -18.7180 C.3       1 NAD         0.0000 
     30 O4D        21.5490   45.6870  -17.4900 O.3       1 NAD         0.0000 
     31 C3D        20.6660   45.8280  -19.7060 C.3       1 NAD         0.0000 
     32 O3D        21.2600   44.6920  -20.3570 O.3       1 NAD         0.0000 
     33 C2D        19.6420   45.2510  -18.7410 C.3       1 NAD         0.0000 
     34 O2D        18.8840   44.1960  -19.3620 O.3       1 NAD         0.0000 
     35 C1D        20.5610   44.6890  -17.6800 C.3       1 NAD         0.0000 
     36 N1N        19.8780   44.3750  -16.4350 N.pl3     1 NAD         0.0000 
     37 C2N        19.0560   45.3180  -15.8240 C.2       1 NAD         0.0000 
     38 C3N        18.4130   45.0640  -14.5440 C.2       1 NAD         0.0000 
     39 C7N        17.7320   46.2170  -13.8990 C.2       1 NAD         0.0000 
     40 O7N        17.2370   45.9260  -12.7980 O.2       1 NAD         0.0000 
     41 N7N        17.6580   47.4710  -14.4380 N.am      1 NAD         0.0000 
     42 C4N        18.5660   43.7530  -13.9120 C.3       1 NAD         0.0000 
     43 C5N        19.4710   42.7970  -14.6370 C.2       1 NAD         0.0000 
     44 C6N        20.0370   43.1270  -15.7860 C.2       1 NAD         0.0000 
     45 HOA2       18.8209   53.6197  -18.2091 H         1 NAD         0.0000 
     46 H51A       21.7870   50.5476  -20.3772 H         1 NAD         0.0000 
     47 H52A       20.7805   51.4471  -21.5623 H         1 NAD         0.0000 
     48 H4B        23.0104   52.6258  -19.8552 H         1 NAD         0.0000 
     49 H3B        20.9629   54.1656  -21.1487 H         1 NAD         0.0000 
     50 HO3A       22.4862   55.1726  -19.5768 H         1 NAD         0.0000 
     51 H2B        21.6787   53.2879  -23.4754 H         1 NAD         0.0000 
     52 HO2A       21.5928   55.6962  -23.5832 H         1 NAD         0.0000 
     53 H1B        24.5854   53.8411  -22.2594 H         1 NAD         0.0000 
     54 H8A        22.3550   52.0040  -24.7920 H         1 NAD         0.0000 
     55 H61A       25.9188   50.6693  -27.8781 H         1 NAD         0.0000 
     56 H62A       27.8109   50.8742  -27.7879 H         1 NAD         0.0000 
     57 H2A        28.6070   53.0290  -23.8460 H         1 NAD         0.0000 
     58 H51N       21.5702   48.5174  -19.3062 H         1 NAD         0.0000 
     59 H52N       22.1927   48.2392  -17.6443 H         1 NAD         0.0000 
     60 H4D        22.6719   46.3603  -19.1492 H         1 NAD         0.0000 
     61 H3D        20.3190   46.5024  -20.5028 H         1 NAD         0.0000 
     62 HO3N       22.0441   44.8398  -21.1142 H         1 NAD         0.0000 
     63 H2D        18.8576   45.9394  -18.3935 H         1 NAD         0.0000 
     64 HO2N       18.1638   44.4321  -20.1593 H         1 NAD         0.0000 
     65 H1D        21.0305   43.7362  -17.9660 H         1 NAD         0.0000 
     66 H2N        18.8987   46.2779  -16.3376 H         1 NAD         0.0000 
     67 H71N       18.1138   47.6763  -15.4178 H         1 NAD         0.0000 
     68 H72N       17.1426   48.2748  -13.8919 H         1 NAD         0.0000 
     69 H4N        18.0440   43.5070  -12.9710 H         1 NAD         0.0000 
     70 H5N        19.6594   41.8074  -14.1953 H         1 NAD         0.0000 
     71 H6N        20.6855   42.4069  -16.3065 H         1 NAD         0.0000 
@<TRIPOS>BOND
     1    1    2 2    
     2    1    3 1    
     3    1    4 1    
     4    1   23 1    
     5    3   45 1    
     6    4    5 1    
     7    5    6 1    
     8    5   46 1    
     9    5   47 1    
    10    6    7 1    
    11    6    8 1    
    12    6   48 1    
    13    7   12 1    
    14    8    9 1    
    15    8   10 1    
    16    8   49 1    
    17    9   50 1    
    18   10   11 1    
    19   10   12 1    
    20   10   51 1    
    21   11   52 1    
    22   12   13 1    
    23   12   53 1    
    24   13   14 ar   
    25   13   22 ar   
    26   14   15 ar   
    27   14   54 1    
    28   15   16 ar   
    29   16   17 ar   
    30   16   22 ar   
    31   17   18 1    
    32   17   19 ar   
    33   18   55 1    
    34   18   56 1    
    35   19   20 ar   
    36   20   21 ar   
    37   20   57 1    
    38   21   22 ar   
    39   23   24 1    
    40   24   25 2    
    41   24   26 1    
    42   24   27 1    
    43   27   28 1    
    44   28   29 1    
    45   28   58 1    
    46   28   59 1    
    47   29   30 1    
    48   29   31 1    
    49   29   60 1    
    50   30   35 1    
    51   31   32 1    
    52   31   33 1    
    53   31   61 1    
    54   32   62 1    
    55   33   34 1    
    56   33   35 1    
    57   33   63 1    
    58   34   64 1    
    59   35   36 1    
    60   35   65 1    
    61   36   37 1    
    62   36   44 1    
    63   37   38 2    
    64   37   66 1    
    65   38   39 1    
    66   38   42 1    
    67   39   40 2    
    68   39   41 am   BACKBONE|DICT|INTERRES
    69   41   67 1    
    70   41   68 1    
    71   42   43 1    
    72   42   69 1    
    73   43   44 2    
    74   43   70 1    
    75   44   71 1    
@<TRIPOS>SUBSTRUCTURE
     1 NAD         1 GROUP             0       ****    0 ROOT    
