@<TRIPOS>MOLECULE
CSO
   15    14     1     0     0
SMALL
NO_CHARGES

@<TRIPOS>ATOM
      1  N         23.0260    5.5960   17.6840 N.3       1 CSO         0.0000
      2  CA        23.8660    4.5550   18.2520 C.3       1 CSO         0.0000
      3  CB        23.4910    3.1810   17.6770 C.3       1 CSO         0.0000
      4  SG        22.1030    2.4410   18.5580 S.3       1 CSO         0.0000
      5  C         25.3470    4.7800   17.9930 C.2       1 CSO         0.0000
      6  O         26.1810    4.4560   18.8370 O.2       1 CSO         0.0000
      7  OXT       25.6600    5.3210   16.8140 O.3       1 CSO         0.0000
      8  OD        22.5640    2.0730   20.2510 O.3       1 CSO         0.0000
      9  H         22.8330    6.2870   18.3810 H         1 CSO         0.0000
     10  HN2       23.5000    6.0230   16.9140 H         1 CSO         0.0000
     11  HA        23.6900    4.5900   19.3370 H         1 CSO         0.0000
     12  HB2       23.2120    3.3050   16.6200 H         1 CSO         0.0000
     13  HB3       24.3600    2.5150   17.7860 H         1 CSO         0.0000
     14  HXT       26.6040    5.4080   16.7450 H         1 CSO         0.0000
     15  HD        23.5100    2.0080   20.3150 H         1 CSO         0.0000
@<TRIPOS>BOND
     1    1    2 1
     2    1    9 1
     3    1   10 1
     4    2    3 1
     5    2    5 1
     6    2   11 1
     7    3    4 1
     8    3   12 1
     9    3   13 1
    10    4    8 1
    11    5    6 2
    12    5    7 1
    13    7   14 1
    14    8   15 1
@<TRIPOS>SUBSTRUCTURE
     1 CSO         1 GROUP 0 A     ****
