@<TRIPOS>MOLECULE
FAD
84   89    1
SMALL
USER_CHARGES


@<TRIPOS>ATOM
      1 PA         21.8380    0.8050   23.1700 P.3       1 FAD         0.0000 
      2 O1A        21.3030   -0.5190   22.7220 O.co2     1 FAD         0.0000 
      3 O2A        21.2420    1.9380   22.7450 O.co2     1 FAD         0.0000 
      4 O5B        21.5190    0.6820   24.6440 O.3       1 FAD         0.0000 
      5 C5B        21.8970    1.6430   25.6850 C.3       1 FAD         0.0000 
      6 C4B        20.9970    1.3300   26.9450 C.3       1 FAD         0.0000 
      7 O4B        21.4600    2.2240   28.0530 O.3       1 FAD         0.0000 
      8 C3B        19.4600    1.6220   26.8060 C.3       1 FAD         0.0000 
      9 O3B        18.6710    0.5790   27.2900 O.3       1 FAD         0.0000 
     10 C2B        19.2980    2.9730   27.5740 C.3       1 FAD         0.0000 
     11 O2B        18.0040    3.1220   28.1030 O.3       1 FAD         0.0000 
     12 C1B        20.2760    2.7830   28.6990 C.3       1 FAD         0.0000 
     13 N9A        20.8010    4.0200   29.2670 N.pl3     1 FAD         0.0000 
     14 C8A        21.1540    5.1530   28.5750 C.ar      1 FAD         0.0000 
     15 N7A        21.6680    6.0970   29.3600 N.2       1 FAD         0.0000 
     16 C5A        21.5630    5.5850   30.6310 C.ar      1 FAD         0.0000 
     17 C6A        21.9270    6.1470   31.9320 C.ar      1 FAD         0.0000 
     18 N6A        22.3520    7.3730   32.0980 N.pl3     1 FAD         0.0000 
     19 N1A        21.5850    5.3620   32.9970 N.ar      1 FAD         0.0000 
     20 C2A        21.0280    4.1270   32.8470 C.ar      1 FAD         0.0000 
     21 N3A        20.7580    3.4920   31.6950 N.ar      1 FAD         0.0000 
     22 C4A        21.0940    4.2440   30.6070 C.ar      1 FAD         0.0000 
     23 N1         21.1130   -2.2310   14.3340 N.2       1 FAD         0.0000 
     24 C2         21.3700   -3.3170   13.6190 C.ar      1 FAD         0.0000 
     25 O2         22.4720   -3.7950   13.5580 O.2       1 FAD         0.0000 
     26 N3         20.3350   -4.0620   12.9920 N.pl3     1 FAD         0.0000 
     27 C4         19.0640   -3.5450   12.8700 C.ar      1 FAD         0.0000 
     28 O4         18.2010   -4.1990   12.3240 O.2       1 FAD         0.0000 
     29 C4X        18.8420   -2.2200   13.4310 C.ar      1 FAD         0.0000 
     30 N5         17.6210   -1.6430   13.3240 N.2       1 FAD         0.0000 
     31 C5X        17.4010   -0.5070   14.0540 C.ar      1 FAD         0.0000 
     32 C6         16.0920    0.0300   14.0340 C.ar      1 FAD         0.0000 
     33 C7         15.7290    1.0490   14.8790 C.ar      1 FAD         0.0000 
     34 C7M        14.3190    1.5870   14.8590 C.3       1 FAD         0.0000 
     35 C8         16.6660    1.5470   15.8520 C.ar      1 FAD         0.0000 
     36 C8M        16.3340    2.7180   16.7390 C.3       1 FAD         0.0000 
     37 C9         17.9420    0.9810   15.9280 C.ar      1 FAD         0.0000 
     38 C9A        18.3310    0.0200   14.9920 C.ar      1 FAD         0.0000 
     39 N10        19.6330   -0.5660   14.9940 N.pl3     1 FAD         0.0000 
     40 C10        19.8920   -1.6530   14.2710 C.ar      1 FAD         0.0000 
     41 C1'        20.6850    0.0690   15.8130 C.3       1 FAD         0.0000 
     42 C2'        21.0540   -0.7970   17.0450 C.3       1 FAD         0.0000 
     43 O2'        19.8580   -1.0730   17.7680 O.3       1 FAD         0.0000 
     44 C3'        21.9860    0.0460   17.9030 C.3       1 FAD         0.0000 
     45 O3'        23.1720    0.2940   17.1450 O.3       1 FAD         0.0000 
     46 C4'        22.3780   -0.7320   19.1670 C.3       1 FAD         0.0000 
     47 O4'        21.2310   -1.0360   19.9620 O.3       1 FAD         0.0000 
     48 C5'        23.3750    0.1170   19.9180 C.3       1 FAD         0.0000 
     49 O5'        23.8840   -0.6520   21.1830 O.3       1 FAD         0.0000 
     50 P          24.5070    0.1030   22.3450 P.3       1 FAD         0.0000 
     51 O1P        24.9820   -0.9910   23.3090 O.co2     1 FAD         0.0000 
     52 O2P        25.4370    1.0540   21.9500 O.co2     1 FAD         0.0000 
     53 O3P        23.4730    0.8660   23.0320 O.3       1 FAD         0.0000 
     54 H51A       22.9631    1.5210   25.9270 H         1 FAD         0.0000 
     55 H52A       21.7181    2.6659   25.3221 H         1 FAD         0.0000 
     56 H4B        21.1215    0.2571   27.1533 H         1 FAD         0.0000 
     57 H3B        19.0330    1.6103   25.7923 H         1 FAD         0.0000 
     58 HO3A       18.7161   -0.4115   26.8137 H         1 FAD         0.0000 
     59 H2B        19.4002    3.8970   26.9859 H         1 FAD         0.0000 
     60 HO2A       17.1481    3.2725   27.4286 H         1 FAD         0.0000 
     61 H1B        19.7898    2.2057   29.4992 H         1 FAD         0.0000 
     62 H8A        21.0350    5.2920   27.4870 H         1 FAD         0.0000 
     63 H61A       22.6212    7.9848   31.2244 H         1 FAD         0.0000 
     64 H62A       22.4402    7.7921   33.1112 H         1 FAD         0.0000 
     65 H2A        20.7640    3.5760   33.7660 H         1 FAD         0.0000 
     66 HN3        20.5432   -5.0668   12.5956 H         1 FAD         0.0000 
     67 H6         15.3300   -0.3580   13.3370 H         1 FAD         0.0000 
     68 HM71       13.7503    1.0953   14.0560 H         1 FAD         0.0000 
     69 HM72       14.3431    2.6721   14.6799 H         1 FAD         0.0000 
     70 HM73       13.8360    1.3857   15.8266 H         1 FAD         0.0000 
     71 HM81       15.2979    3.0369   16.5527 H         1 FAD         0.0000 
     72 HM82       17.0190    3.5502   16.5193 H         1 FAD         0.0000 
     73 HM83       16.4427    2.4221   17.7929 H         1 FAD         0.0000 
     74 H9         18.6390    1.2910   16.7230 H         1 FAD         0.0000 
     75 H1'1       21.5903    0.2076   15.2038 H         1 FAD         0.0000 
     76 H1'2       20.3307    1.0469   16.1710 H         1 FAD         0.0000 
     77 H2'        21.4878   -1.7791   16.8058 H         1 FAD         0.0000 
     78 HO2'       19.0616   -1.6741   17.3048 H         1 FAD         0.0000 
     79 H3'        21.5298    1.0156   18.1516 H         1 FAD         0.0000 
     80 HO3'       23.1120    0.8433   16.1939 H         1 FAD         0.0000 
     81 H4'        22.7871   -1.7307   18.9541 H         1 FAD         0.0000 
     82 HO4'       20.4189   -1.6490   19.5440 H         1 FAD         0.0000 
     83 H5'1       24.2294    0.3444   19.2636 H         1 FAD         0.0000 
     84 H5'2       22.8943    1.0550   20.2327 H         1 FAD         0.0000 
@<TRIPOS>BOND
     1    1    2 2    
     2    1    3 1    
     3    1    4 1    
     4    1   53 1    
     5    4    5 1    
     6    5    6 1    
     7    5   54 1    
     8    5   55 1    
     9    6    7 1    
    10    6    8 1    
    11    6   56 1    
    12    7   12 1    
    13    8    9 1    
    14    8   10 1    
    15    8   57 1    
    16    9   58 1    
    17   10   11 1    
    18   10   12 1    
    19   10   59 1    
    20   11   60 1    
    21   12   13 1    
    22   12   61 1    
    23   13   14 ar   
    24   13   22 ar   
    25   14   15 ar   
    26   14   62 1    
    27   15   16 ar   
    28   16   17 ar   
    29   16   22 ar   
    30   17   18 1    
    31   17   19 ar   
    32   18   63 1    
    33   18   64 1    
    34   19   20 ar   
    35   20   21 ar   
    36   20   65 1    
    37   21   22 ar   
    38   23   24 ar   
    39   23   40 ar   
    40   24   25 2    
    41   24   26 ar   
    42   26   27 ar   
    43   26   66 1    
    44   27   28 2    
    45   27   29 ar   
    46   29   30 ar   
    47   29   40 ar   
    48   30   31 ar   
    49   31   32 ar   
    50   31   38 ar   
    51   32   33 ar   
    52   32   67 1    
    53   33   34 1    
    54   33   35 ar   
    55   34   68 1    
    56   34   69 1    
    57   34   70 1    
    58   35   36 1    
    59   35   37 ar   
    60   36   71 1    
    61   36   72 1    
    62   36   73 1    
    63   37   38 ar   
    64   37   74 1    
    65   38   39 ar   
    66   39   40 ar   
    67   39   41 1    
    68   41   42 1    
    69   41   75 1    
    70   41   76 1    
    71   42   43 1    
    72   42   44 1    
    73   42   77 1    
    74   43   78 1    
    75   44   45 1    
    76   44   46 1    
    77   44   79 1    
    78   45   80 1    
    79   46   47 1    
    80   46   48 1    
    81   46   81 1    
    82   47   82 1    
    83   48   49 1    
    84   48   83 1    
    85   48   84 1    
    86   49   50 1    
    87   50   51 2    
    88   50   52 1    
    89   50   53 1    
@<TRIPOS>SUBSTRUCTURE
     1 FAD         1 GROUP             0       ****    0 ROOT    
@<TRIPOS>MOLECULE
FAD
85   90    1
SMALL
USER_CHARGES


@<TRIPOS>ATOM
      1 PA         21.8380    0.8050   23.1700 P.3       1 FAD         0.0000 
      2 O1A        21.3030   -0.5190   22.7220 O.co2     1 FAD         0.0000 
      3 O2A        21.2420    1.9380   22.7450 O.co2     1 FAD         0.0000 
      4 O5B        21.5190    0.6820   24.6440 O.3       1 FAD         0.0000 
      5 C5B        21.8970    1.6430   25.6850 C.3       1 FAD         0.0000 
      6 C4B        20.9970    1.3300   26.9450 C.3       1 FAD         0.0000 
      7 O4B        21.4600    2.2240   28.0530 O.3       1 FAD         0.0000 
      8 C3B        19.4600    1.6220   26.8060 C.3       1 FAD         0.0000 
      9 O3B        18.6710    0.5790   27.2900 O.3       1 FAD         0.0000 
     10 C2B        19.2980    2.9730   27.5740 C.3       1 FAD         0.0000 
     11 O2B        18.0040    3.1220   28.1030 O.3       1 FAD         0.0000 
     12 C1B        20.2760    2.7830   28.6990 C.3       1 FAD         0.0000 
     13 N9A        20.8010    4.0200   29.2670 N.pl3     1 FAD         0.0000 
     14 C8A        21.1540    5.1530   28.5750 C.ar      1 FAD         0.0000 
     15 N7A        21.6680    6.0970   29.3600 N.2       1 FAD         0.0000 
     16 C5A        21.5630    5.5850   30.6310 C.ar      1 FAD         0.0000 
     17 C6A        21.9270    6.1470   31.9320 C.ar      1 FAD         0.0000 
     18 N6A        22.3520    7.3730   32.0980 N.pl3     1 FAD         0.0000 
     19 N1A        21.5850    5.3620   32.9970 N.ar      1 FAD         0.0000 
     20 C2A        21.0280    4.1270   32.8470 C.ar      1 FAD         0.0000 
     21 N3A        20.7580    3.4920   31.6950 N.ar      1 FAD         0.0000 
     22 C4A        21.0940    4.2440   30.6070 C.ar      1 FAD         0.0000 
     23 N1         21.1130   -2.2310   14.3340 N.2       1 FAD         0.0000 
     24 C2         21.3700   -3.3170   13.6190 C.ar      1 FAD         0.0000 
     25 O2         22.4720   -3.7950   13.5580 O.2       1 FAD         0.0000 
     26 N3         20.3350   -4.0620   12.9920 N.pl3     1 FAD         0.0000 
     27 C4         19.0640   -3.5450   12.8700 C.ar      1 FAD         0.0000 
     28 O4         18.2010   -4.1990   12.3240 O.2       1 FAD         0.0000 
     29 C4X        18.8420   -2.2200   13.4310 C.ar      1 FAD         0.0000 
     30 N5         17.6210   -1.6430   13.3240 N.2       1 FAD         0.0000 
     31 C5X        17.4010   -0.5070   14.0540 C.ar      1 FAD         0.0000 
     32 C6         16.0920    0.0300   14.0340 C.ar      1 FAD         0.0000 
     33 C7         15.7290    1.0490   14.8790 C.ar      1 FAD         0.0000 
     34 C7M        14.3190    1.5870   14.8590 C.3       1 FAD         0.0000 
     35 C8         16.6660    1.5470   15.8520 C.ar      1 FAD         0.0000 
     36 C8M        16.3340    2.7180   16.7390 C.3       1 FAD         0.0000 
     37 C9         17.9420    0.9810   15.9280 C.ar      1 FAD         0.0000 
     38 C9A        18.3310    0.0200   14.9920 C.ar      1 FAD         0.0000 
     39 N10        19.6330   -0.5660   14.9940 N.pl3     1 FAD         0.0000 
     40 C10        19.8920   -1.6530   14.2710 C.ar      1 FAD         0.0000 
     41 C1'        20.6850    0.0690   15.8130 C.3       1 FAD         0.0000 
     42 C2'        21.0540   -0.7970   17.0450 C.3       1 FAD         0.0000 
     43 O2'        19.8580   -1.0730   17.7680 O.3       1 FAD         0.0000 
     44 C3'        21.9860    0.0460   17.9030 C.3       1 FAD         0.0000 
     45 O3'        23.1720    0.2940   17.1450 O.3       1 FAD         0.0000 
     46 C4'        22.3780   -0.7320   19.1670 C.3       1 FAD         0.0000 
     47 O4'        21.2310   -1.0360   19.9620 O.3       1 FAD         0.0000 
     48 C5'        23.3750    0.1170   19.9180 C.3       1 FAD         0.0000 
     49 O5'        23.8840   -0.6520   21.1830 O.3       1 FAD         0.0000 
     50 P          24.5070    0.1030   22.3450 P.3       1 FAD         0.0000 
     51 O1P        24.9820   -0.9910   23.3090 O.2       1 FAD         0.0000 
     52 O2P        25.4370    1.0540   21.9500 O.3       1 FAD         0.0000 
     53 O3P        23.4730    0.8660   23.0320 O.3       1 FAD         0.0000 
     54 H51A       22.9631    1.5210   25.9270 H         1 FAD         0.0000 
     55 H52A       21.7181    2.6659   25.3221 H         1 FAD         0.0000 
     56 H4B        21.1215    0.2571   27.1533 H         1 FAD         0.0000 
     57 H3B        19.0330    1.6103   25.7923 H         1 FAD         0.0000 
     58 HO3A       18.7161   -0.4115   26.8137 H         1 FAD         0.0000 
     59 H2B        19.4002    3.8970   26.9859 H         1 FAD         0.0000 
     60 HO2A       17.1481    3.2725   27.4286 H         1 FAD         0.0000 
     61 H1B        19.7898    2.2057   29.4992 H         1 FAD         0.0000 
     62 H8A        21.0350    5.2920   27.4870 H         1 FAD         0.0000 
     63 H61A       22.6212    7.9848   31.2244 H         1 FAD         0.0000 
     64 H62A       22.4402    7.7921   33.1112 H         1 FAD         0.0000 
     65 H2A        20.7640    3.5760   33.7660 H         1 FAD         0.0000 
     66 HN3        20.5432   -5.0668   12.5956 H         1 FAD         0.0000 
     67 H6         15.3300   -0.3580   13.3370 H         1 FAD         0.0000 
     68 HM71       13.7503    1.0953   14.0560 H         1 FAD         0.0000 
     69 HM72       14.3431    2.6721   14.6799 H         1 FAD         0.0000 
     70 HM73       13.8360    1.3857   15.8266 H         1 FAD         0.0000 
     71 HM81       15.2979    3.0369   16.5527 H         1 FAD         0.0000 
     72 HM82       17.0190    3.5502   16.5193 H         1 FAD         0.0000 
     73 HM83       16.4427    2.4221   17.7929 H         1 FAD         0.0000 
     74 H9         18.6390    1.2910   16.7230 H         1 FAD         0.0000 
     75 H1'1       21.5903    0.2076   15.2038 H         1 FAD         0.0000 
     76 H1'2       20.3307    1.0469   16.1710 H         1 FAD         0.0000 
     77 H2'        21.4878   -1.7791   16.8058 H         1 FAD         0.0000 
     78 HO2'       19.0616   -1.6741   17.3048 H         1 FAD         0.0000 
     79 H3'        21.5298    1.0156   18.1516 H         1 FAD         0.0000 
     80 HO3'       23.1120    0.8433   16.1939 H         1 FAD         0.0000 
     81 H4'        22.7871   -1.7307   18.9541 H         1 FAD         0.0000 
     82 HO4'       20.4189   -1.6490   19.5440 H         1 FAD         0.0000 
     83 H5'1       24.2294    0.3444   19.2636 H         1 FAD         0.0000 
     84 H5'2       22.8943    1.0550   20.2327 H         1 FAD         0.0000 
     85 HOP2       26.3384    0.7464   21.3998 H         1 FAD         0.0000 
@<TRIPOS>BOND
     1    1    2 2    
     2    1    3 1    
     3    1    4 1    
     4    1   53 1    
     5    4    5 1    
     6    5    6 1    
     7    5   54 1    
     8    5   55 1    
     9    6    7 1    
    10    6    8 1    
    11    6   56 1    
    12    7   12 1    
    13    8    9 1    
    14    8   10 1    
    15    8   57 1    
    16    9   58 1    
    17   10   11 1    
    18   10   12 1    
    19   10   59 1    
    20   11   60 1    
    21   12   13 1    
    22   12   61 1    
    23   13   14 ar   
    24   13   22 ar   
    25   14   15 ar   
    26   14   62 1    
    27   15   16 ar   
    28   16   17 ar   
    29   16   22 ar   
    30   17   18 1    
    31   17   19 ar   
    32   18   63 1    
    33   18   64 1    
    34   19   20 ar   
    35   20   21 ar   
    36   20   65 1    
    37   21   22 ar   
    38   23   24 ar   
    39   23   40 ar   
    40   24   25 2    
    41   24   26 ar   
    42   26   27 ar   
    43   26   66 1    
    44   27   28 2    
    45   27   29 ar   
    46   29   30 ar   
    47   29   40 ar   
    48   30   31 ar   
    49   31   32 ar   
    50   31   38 ar   
    51   32   33 ar   
    52   32   67 1    
    53   33   34 1    
    54   33   35 ar   
    55   34   68 1    
    56   34   69 1    
    57   34   70 1    
    58   35   36 1    
    59   35   37 ar   
    60   36   71 1    
    61   36   72 1    
    62   36   73 1    
    63   37   38 ar   
    64   37   74 1    
    65   38   39 ar   
    66   39   40 ar   
    67   39   41 1    
    68   41   42 1    
    69   41   75 1    
    70   41   76 1    
    71   42   43 1    
    72   42   44 1    
    73   42   77 1    
    74   43   78 1    
    75   44   45 1    
    76   44   46 1    
    77   44   79 1    
    78   45   80 1    
    79   46   47 1    
    80   46   48 1    
    81   46   81 1    
    82   47   82 1    
    83   48   49 1    
    84   48   83 1    
    85   48   84 1    
    86   49   50 1    
    87   50   51 2    
    88   50   52 1    
    89   50   53 1    
    90   52   85 1    
@<TRIPOS>SUBSTRUCTURE
     1 FAD         1 GROUP             0       ****    0 ROOT    
@<TRIPOS>MOLECULE
FAD
85   90    1
SMALL
USER_CHARGES


@<TRIPOS>ATOM
      1 PA         21.8380    0.8050   23.1700 P.3       1 FAD         0.0000 
      2 O1A        21.3030   -0.5190   22.7220 O.2       1 FAD         0.0000 
      3 O2A        21.2420    1.9380   22.7450 O.3       1 FAD         0.0000 
      4 O5B        21.5190    0.6820   24.6440 O.3       1 FAD         0.0000 
      5 C5B        21.8970    1.6430   25.6850 C.3       1 FAD         0.0000 
      6 C4B        20.9970    1.3300   26.9450 C.3       1 FAD         0.0000 
      7 O4B        21.4600    2.2240   28.0530 O.3       1 FAD         0.0000 
      8 C3B        19.4600    1.6220   26.8060 C.3       1 FAD         0.0000 
      9 O3B        18.6710    0.5790   27.2900 O.3       1 FAD         0.0000 
     10 C2B        19.2980    2.9730   27.5740 C.3       1 FAD         0.0000 
     11 O2B        18.0040    3.1220   28.1030 O.3       1 FAD         0.0000 
     12 C1B        20.2760    2.7830   28.6990 C.3       1 FAD         0.0000 
     13 N9A        20.8010    4.0200   29.2670 N.pl3     1 FAD         0.0000 
     14 C8A        21.1540    5.1530   28.5750 C.ar      1 FAD         0.0000 
     15 N7A        21.6680    6.0970   29.3600 N.2       1 FAD         0.0000 
     16 C5A        21.5630    5.5850   30.6310 C.ar      1 FAD         0.0000 
     17 C6A        21.9270    6.1470   31.9320 C.ar      1 FAD         0.0000 
     18 N6A        22.3520    7.3730   32.0980 N.pl3     1 FAD         0.0000 
     19 N1A        21.5850    5.3620   32.9970 N.ar      1 FAD         0.0000 
     20 C2A        21.0280    4.1270   32.8470 C.ar      1 FAD         0.0000 
     21 N3A        20.7580    3.4920   31.6950 N.ar      1 FAD         0.0000 
     22 C4A        21.0940    4.2440   30.6070 C.ar      1 FAD         0.0000 
     23 N1         21.1130   -2.2310   14.3340 N.2       1 FAD         0.0000 
     24 C2         21.3700   -3.3170   13.6190 C.ar      1 FAD         0.0000 
     25 O2         22.4720   -3.7950   13.5580 O.2       1 FAD         0.0000 
     26 N3         20.3350   -4.0620   12.9920 N.pl3     1 FAD         0.0000 
     27 C4         19.0640   -3.5450   12.8700 C.ar      1 FAD         0.0000 
     28 O4         18.2010   -4.1990   12.3240 O.2       1 FAD         0.0000 
     29 C4X        18.8420   -2.2200   13.4310 C.ar      1 FAD         0.0000 
     30 N5         17.6210   -1.6430   13.3240 N.2       1 FAD         0.0000 
     31 C5X        17.4010   -0.5070   14.0540 C.ar      1 FAD         0.0000 
     32 C6         16.0920    0.0300   14.0340 C.ar      1 FAD         0.0000 
     33 C7         15.7290    1.0490   14.8790 C.ar      1 FAD         0.0000 
     34 C7M        14.3190    1.5870   14.8590 C.3       1 FAD         0.0000 
     35 C8         16.6660    1.5470   15.8520 C.ar      1 FAD         0.0000 
     36 C8M        16.3340    2.7180   16.7390 C.3       1 FAD         0.0000 
     37 C9         17.9420    0.9810   15.9280 C.ar      1 FAD         0.0000 
     38 C9A        18.3310    0.0200   14.9920 C.ar      1 FAD         0.0000 
     39 N10        19.6330   -0.5660   14.9940 N.pl3     1 FAD         0.0000 
     40 C10        19.8920   -1.6530   14.2710 C.ar      1 FAD         0.0000 
     41 C1'        20.6850    0.0690   15.8130 C.3       1 FAD         0.0000 
     42 C2'        21.0540   -0.7970   17.0450 C.3       1 FAD         0.0000 
     43 O2'        19.8580   -1.0730   17.7680 O.3       1 FAD         0.0000 
     44 C3'        21.9860    0.0460   17.9030 C.3       1 FAD         0.0000 
     45 O3'        23.1720    0.2940   17.1450 O.3       1 FAD         0.0000 
     46 C4'        22.3780   -0.7320   19.1670 C.3       1 FAD         0.0000 
     47 O4'        21.2310   -1.0360   19.9620 O.3       1 FAD         0.0000 
     48 C5'        23.3750    0.1170   19.9180 C.3       1 FAD         0.0000 
     49 O5'        23.8840   -0.6520   21.1830 O.3       1 FAD         0.0000 
     50 P          24.5070    0.1030   22.3450 P.3       1 FAD         0.0000 
     51 O1P        24.9820   -0.9910   23.3090 O.co2     1 FAD         0.0000 
     52 O2P        25.4370    1.0540   21.9500 O.co2     1 FAD         0.0000 
     53 O3P        23.4730    0.8660   23.0320 O.3       1 FAD         0.0000 
     54 HOA2       20.1466    2.0306   22.7825 H         1 FAD         0.0000 
     55 H51A       22.9631    1.5210   25.9270 H         1 FAD         0.0000 
     56 H52A       21.7181    2.6659   25.3221 H         1 FAD         0.0000 
     57 H4B        21.1215    0.2571   27.1533 H         1 FAD         0.0000 
     58 H3B        19.0330    1.6103   25.7923 H         1 FAD         0.0000 
     59 HO3A       18.7161   -0.4115   26.8137 H         1 FAD         0.0000 
     60 H2B        19.4002    3.8970   26.9859 H         1 FAD         0.0000 
     61 HO2A       17.1481    3.2725   27.4286 H         1 FAD         0.0000 
     62 H1B        19.7898    2.2057   29.4992 H         1 FAD         0.0000 
     63 H8A        21.0350    5.2920   27.4870 H         1 FAD         0.0000 
     64 H61A       22.6212    7.9848   31.2244 H         1 FAD         0.0000 
     65 H62A       22.4402    7.7921   33.1112 H         1 FAD         0.0000 
     66 H2A        20.7640    3.5760   33.7660 H         1 FAD         0.0000 
     67 HN3        20.5432   -5.0668   12.5956 H         1 FAD         0.0000 
     68 H6         15.3300   -0.3580   13.3370 H         1 FAD         0.0000 
     69 HM71       13.7503    1.0953   14.0560 H         1 FAD         0.0000 
     70 HM72       14.3431    2.6721   14.6799 H         1 FAD         0.0000 
     71 HM73       13.8360    1.3857   15.8266 H         1 FAD         0.0000 
     72 HM81       15.2979    3.0369   16.5527 H         1 FAD         0.0000 
     73 HM82       17.0190    3.5502   16.5193 H         1 FAD         0.0000 
     74 HM83       16.4427    2.4221   17.7929 H         1 FAD         0.0000 
     75 H9         18.6390    1.2910   16.7230 H         1 FAD         0.0000 
     76 H1'1       21.5903    0.2076   15.2038 H         1 FAD         0.0000 
     77 H1'2       20.3307    1.0469   16.1710 H         1 FAD         0.0000 
     78 H2'        21.4878   -1.7791   16.8058 H         1 FAD         0.0000 
     79 HO2'       19.0616   -1.6741   17.3048 H         1 FAD         0.0000 
     80 H3'        21.5298    1.0156   18.1516 H         1 FAD         0.0000 
     81 HO3'       23.1120    0.8433   16.1939 H         1 FAD         0.0000 
     82 H4'        22.7871   -1.7307   18.9541 H         1 FAD         0.0000 
     83 HO4'       20.4189   -1.6490   19.5440 H         1 FAD         0.0000 
     84 H5'1       24.2294    0.3444   19.2636 H         1 FAD         0.0000 
     85 H5'2       22.8943    1.0550   20.2327 H         1 FAD         0.0000 
@<TRIPOS>BOND
     1    1    2 2    
     2    1    3 1    
     3    1    4 1    
     4    1   53 1    
     5    3   54 1    
     6    4    5 1    
     7    5    6 1    
     8    5   55 1    
     9    5   56 1    
    10    6    7 1    
    11    6    8 1    
    12    6   57 1    
    13    7   12 1    
    14    8    9 1    
    15    8   10 1    
    16    8   58 1    
    17    9   59 1    
    18   10   11 1    
    19   10   12 1    
    20   10   60 1    
    21   11   61 1    
    22   12   13 1    
    23   12   62 1    
    24   13   14 ar   
    25   13   22 ar   
    26   14   15 ar   
    27   14   63 1    
    28   15   16 ar   
    29   16   17 ar   
    30   16   22 ar   
    31   17   18 1    
    32   17   19 ar   
    33   18   64 1    
    34   18   65 1    
    35   19   20 ar   
    36   20   21 ar   
    37   20   66 1    
    38   21   22 ar   
    39   23   24 ar   
    40   23   40 ar   
    41   24   25 2    
    42   24   26 ar   
    43   26   27 ar   
    44   26   67 1    
    45   27   28 2    
    46   27   29 ar   
    47   29   30 ar   
    48   29   40 ar   
    49   30   31 ar   
    50   31   32 ar   
    51   31   38 ar   
    52   32   33 ar   
    53   32   68 1    
    54   33   34 1    
    55   33   35 ar   
    56   34   69 1    
    57   34   70 1    
    58   34   71 1    
    59   35   36 1    
    60   35   37 ar   
    61   36   72 1    
    62   36   73 1    
    63   36   74 1    
    64   37   38 ar   
    65   37   75 1    
    66   38   39 ar   
    67   39   40 ar   
    68   39   41 1    
    69   41   42 1    
    70   41   76 1    
    71   41   77 1    
    72   42   43 1    
    73   42   44 1    
    74   42   78 1    
    75   43   79 1    
    76   44   45 1    
    77   44   46 1    
    78   44   80 1    
    79   45   81 1    
    80   46   47 1    
    81   46   48 1    
    82   46   82 1    
    83   47   83 1    
    84   48   49 1    
    85   48   84 1    
    86   48   85 1    
    87   49   50 1    
    88   50   51 2    
    89   50   52 1    
    90   50   53 1    
@<TRIPOS>SUBSTRUCTURE
     1 FAD         1 GROUP             0       ****    0 ROOT    
@<TRIPOS>MOLECULE
FAD
85   90    1
SMALL
USER_CHARGES


@<TRIPOS>ATOM
      1 PA         21.8380    0.8050   23.1700 P.3       1 FAD         0.0000 
      2 O1A        21.3030   -0.5190   22.7220 O.co2     1 FAD         0.0000 
      3 O2A        21.2420    1.9380   22.7450 O.co2     1 FAD         0.0000 
      4 O5B        21.5190    0.6820   24.6440 O.3       1 FAD         0.0000 
      5 C5B        21.8970    1.6430   25.6850 C.3       1 FAD         0.0000 
      6 C4B        20.9970    1.3300   26.9450 C.3       1 FAD         0.0000 
      7 O4B        21.4600    2.2240   28.0530 O.3       1 FAD         0.0000 
      8 C3B        19.4600    1.6220   26.8060 C.3       1 FAD         0.0000 
      9 O3B        18.6710    0.5790   27.2900 O.3       1 FAD         0.0000 
     10 C2B        19.2980    2.9730   27.5740 C.3       1 FAD         0.0000 
     11 O2B        18.0040    3.1220   28.1030 O.3       1 FAD         0.0000 
     12 C1B        20.2760    2.7830   28.6990 C.3       1 FAD         0.0000 
     13 N9A        20.8010    4.0200   29.2670 N.pl3     1 FAD         0.0000 
     14 C8A        21.1540    5.1530   28.5750 C.ar      1 FAD         0.0000 
     15 N7A        21.6680    6.0970   29.3600 N.2       1 FAD         0.0000 
     16 C5A        21.5630    5.5850   30.6310 C.ar      1 FAD         0.0000 
     17 C6A        21.9270    6.1470   31.9320 C.ar      1 FAD         0.0000 
     18 N6A        22.3520    7.3730   32.0980 N.pl3     1 FAD         0.0000 
     19 N1A        21.5850    5.3620   32.9970 N.pl3     1 FAD         0.0000 
     20 C2A        21.0280    4.1270   32.8470 C.ar      1 FAD         0.0000 
     21 N3A        20.7580    3.4920   31.6950 N.ar      1 FAD         0.0000 
     22 C4A        21.0940    4.2440   30.6070 C.ar      1 FAD         0.0000 
     23 N1         21.1130   -2.2310   14.3340 N.2       1 FAD         0.0000 
     24 C2         21.3700   -3.3170   13.6190 C.ar      1 FAD         0.0000 
     25 O2         22.4720   -3.7950   13.5580 O.2       1 FAD         0.0000 
     26 N3         20.3350   -4.0620   12.9920 N.pl3     1 FAD         0.0000 
     27 C4         19.0640   -3.5450   12.8700 C.ar      1 FAD         0.0000 
     28 O4         18.2010   -4.1990   12.3240 O.2       1 FAD         0.0000 
     29 C4X        18.8420   -2.2200   13.4310 C.ar      1 FAD         0.0000 
     30 N5         17.6210   -1.6430   13.3240 N.2       1 FAD         0.0000 
     31 C5X        17.4010   -0.5070   14.0540 C.ar      1 FAD         0.0000 
     32 C6         16.0920    0.0300   14.0340 C.ar      1 FAD         0.0000 
     33 C7         15.7290    1.0490   14.8790 C.ar      1 FAD         0.0000 
     34 C7M        14.3190    1.5870   14.8590 C.3       1 FAD         0.0000 
     35 C8         16.6660    1.5470   15.8520 C.ar      1 FAD         0.0000 
     36 C8M        16.3340    2.7180   16.7390 C.3       1 FAD         0.0000 
     37 C9         17.9420    0.9810   15.9280 C.ar      1 FAD         0.0000 
     38 C9A        18.3310    0.0200   14.9920 C.ar      1 FAD         0.0000 
     39 N10        19.6330   -0.5660   14.9940 N.pl3     1 FAD         0.0000 
     40 C10        19.8920   -1.6530   14.2710 C.ar      1 FAD         0.0000 
     41 C1'        20.6850    0.0690   15.8130 C.3       1 FAD         0.0000 
     42 C2'        21.0540   -0.7970   17.0450 C.3       1 FAD         0.0000 
     43 O2'        19.8580   -1.0730   17.7680 O.3       1 FAD         0.0000 
     44 C3'        21.9860    0.0460   17.9030 C.3       1 FAD         0.0000 
     45 O3'        23.1720    0.2940   17.1450 O.3       1 FAD         0.0000 
     46 C4'        22.3780   -0.7320   19.1670 C.3       1 FAD         0.0000 
     47 O4'        21.2310   -1.0360   19.9620 O.3       1 FAD         0.0000 
     48 C5'        23.3750    0.1170   19.9180 C.3       1 FAD         0.0000 
     49 O5'        23.8840   -0.6520   21.1830 O.3       1 FAD         0.0000 
     50 P          24.5070    0.1030   22.3450 P.3       1 FAD         0.0000 
     51 O1P        24.9820   -0.9910   23.3090 O.co2     1 FAD         0.0000 
     52 O2P        25.4370    1.0540   21.9500 O.co2     1 FAD         0.0000 
     53 O3P        23.4730    0.8660   23.0320 O.3       1 FAD         0.0000 
     54 H51A       22.9631    1.5210   25.9270 H         1 FAD         0.0000 
     55 H52A       21.7181    2.6659   25.3221 H         1 FAD         0.0000 
     56 H4B        21.1215    0.2571   27.1533 H         1 FAD         0.0000 
     57 H3B        19.0330    1.6103   25.7923 H         1 FAD         0.0000 
     58 HO3A       18.7161   -0.4115   26.8137 H         1 FAD         0.0000 
     59 H2B        19.4002    3.8970   26.9859 H         1 FAD         0.0000 
     60 HO2A       17.1481    3.2725   27.4286 H         1 FAD         0.0000 
     61 H1B        19.7898    2.2057   29.4992 H         1 FAD         0.0000 
     62 H8A        21.0350    5.2920   27.4870 H         1 FAD         0.0000 
     63 H61A       22.6212    7.9848   31.2244 H         1 FAD         0.0000 
     64 H62A       22.4402    7.7921   33.1112 H         1 FAD         0.0000 
     65 H2A        20.7640    3.5760   33.7660 H         1 FAD         0.0000 
     66 HN3        20.5432   -5.0668   12.5956 H         1 FAD         0.0000 
     67 H6         15.3300   -0.3580   13.3370 H         1 FAD         0.0000 
     68 HM71       13.7503    1.0953   14.0560 H         1 FAD         0.0000 
     69 HM72       14.3431    2.6721   14.6799 H         1 FAD         0.0000 
     70 HM73       13.8360    1.3857   15.8266 H         1 FAD         0.0000 
     71 HM81       15.2979    3.0369   16.5527 H         1 FAD         0.0000 
     72 HM82       17.0190    3.5502   16.5193 H         1 FAD         0.0000 
     73 HM83       16.4427    2.4221   17.7929 H         1 FAD         0.0000 
     74 H9         18.6390    1.2910   16.7230 H         1 FAD         0.0000 
     75 H1'1       21.5903    0.2076   15.2038 H         1 FAD         0.0000 
     76 H1'2       20.3307    1.0469   16.1710 H         1 FAD         0.0000 
     77 H2'        21.4878   -1.7791   16.8058 H         1 FAD         0.0000 
     78 HO2'       19.0616   -1.6741   17.3048 H         1 FAD         0.0000 
     79 H3'        21.5298    1.0156   18.1516 H         1 FAD         0.0000 
     80 HO3'       23.1120    0.8433   16.1939 H         1 FAD         0.0000 
     81 H4'        22.7871   -1.7307   18.9541 H         1 FAD         0.0000 
     82 HO4'       20.4189   -1.6490   19.5440 H         1 FAD         0.0000 
     83 H5'1       24.2294    0.3444   19.2636 H         1 FAD         0.0000 
     84 H5'2       22.8943    1.0550   20.2327 H         1 FAD         0.0000 
     85 H85        21.7570    5.7209   34.0225 H         1 FAD         0.0000 
@<TRIPOS>BOND
     1    1    2 2    
     2    1    3 1    
     3    1    4 1    
     4    1   53 1    
     5    4    5 1    
     6    5    6 1    
     7    5   54 1    
     8    5   55 1    
     9    6    7 1    
    10    6    8 1    
    11    6   56 1    
    12    7   12 1    
    13    8    9 1    
    14    8   10 1    
    15    8   57 1    
    16    9   58 1    
    17   10   11 1    
    18   10   12 1    
    19   10   59 1    
    20   11   60 1    
    21   12   13 1    
    22   12   61 1    
    23   13   14 ar   
    24   13   22 ar   
    25   14   15 ar   
    26   14   62 1    
    27   15   16 ar   
    28   16   17 ar   
    29   16   22 ar   
    30   17   18 1    
    31   17   19 ar   
    32   18   63 1    
    33   18   64 1    
    34   19   20 ar   
    35   19   85 1    
    36   20   21 ar   
    37   20   65 1    
    38   21   22 ar   
    39   23   24 ar   
    40   23   40 ar   
    41   24   25 2    
    42   24   26 ar   
    43   26   27 ar   
    44   26   66 1    
    45   27   28 2    
    46   27   29 ar   
    47   29   30 ar   
    48   29   40 ar   
    49   30   31 ar   
    50   31   32 ar   
    51   31   38 ar   
    52   32   33 ar   
    53   32   67 1    
    54   33   34 1    
    55   33   35 ar   
    56   34   68 1    
    57   34   69 1    
    58   34   70 1    
    59   35   36 1    
    60   35   37 ar   
    61   36   71 1    
    62   36   72 1    
    63   36   73 1    
    64   37   38 ar   
    65   37   74 1    
    66   38   39 ar   
    67   39   40 ar   
    68   39   41 1    
    69   41   42 1    
    70   41   75 1    
    71   41   76 1    
    72   42   43 1    
    73   42   44 1    
    74   42   77 1    
    75   43   78 1    
    76   44   45 1    
    77   44   46 1    
    78   44   79 1    
    79   45   80 1    
    80   46   47 1    
    81   46   48 1    
    82   46   81 1    
    83   47   82 1    
    84   48   49 1    
    85   48   83 1    
    86   48   84 1    
    87   49   50 1    
    88   50   51 2    
    89   50   52 1    
    90   50   53 1    
@<TRIPOS>SUBSTRUCTURE
     1 FAD         1 GROUP             0       ****    0 ROOT    
@<TRIPOS>MOLECULE
FAD
86   91    1
SMALL
USER_CHARGES


@<TRIPOS>ATOM
      1 PA         21.8380    0.8050   23.1700 P.3       1 FAD         0.0000 
      2 O1A        21.3030   -0.5190   22.7220 O.co2     1 FAD         0.0000 
      3 O2A        21.2420    1.9380   22.7450 O.co2     1 FAD         0.0000 
      4 O5B        21.5190    0.6820   24.6440 O.3       1 FAD         0.0000 
      5 C5B        21.8970    1.6430   25.6850 C.3       1 FAD         0.0000 
      6 C4B        20.9970    1.3300   26.9450 C.3       1 FAD         0.0000 
      7 O4B        21.4600    2.2240   28.0530 O.3       1 FAD         0.0000 
      8 C3B        19.4600    1.6220   26.8060 C.3       1 FAD         0.0000 
      9 O3B        18.6710    0.5790   27.2900 O.3       1 FAD         0.0000 
     10 C2B        19.2980    2.9730   27.5740 C.3       1 FAD         0.0000 
     11 O2B        18.0040    3.1220   28.1030 O.3       1 FAD         0.0000 
     12 C1B        20.2760    2.7830   28.6990 C.3       1 FAD         0.0000 
     13 N9A        20.8010    4.0200   29.2670 N.pl3     1 FAD         0.0000 
     14 C8A        21.1540    5.1530   28.5750 C.ar      1 FAD         0.0000 
     15 N7A        21.6680    6.0970   29.3600 N.2       1 FAD         0.0000 
     16 C5A        21.5630    5.5850   30.6310 C.ar      1 FAD         0.0000 
     17 C6A        21.9270    6.1470   31.9320 C.ar      1 FAD         0.0000 
     18 N6A        22.3520    7.3730   32.0980 N.pl3     1 FAD         0.0000 
     19 N1A        21.5850    5.3620   32.9970 N.pl3     1 FAD         0.0000 
     20 C2A        21.0280    4.1270   32.8470 C.ar      1 FAD         0.0000 
     21 N3A        20.7580    3.4920   31.6950 N.ar      1 FAD         0.0000 
     22 C4A        21.0940    4.2440   30.6070 C.ar      1 FAD         0.0000 
     23 N1         21.1130   -2.2310   14.3340 N.2       1 FAD         0.0000 
     24 C2         21.3700   -3.3170   13.6190 C.ar      1 FAD         0.0000 
     25 O2         22.4720   -3.7950   13.5580 O.2       1 FAD         0.0000 
     26 N3         20.3350   -4.0620   12.9920 N.pl3     1 FAD         0.0000 
     27 C4         19.0640   -3.5450   12.8700 C.ar      1 FAD         0.0000 
     28 O4         18.2010   -4.1990   12.3240 O.2       1 FAD         0.0000 
     29 C4X        18.8420   -2.2200   13.4310 C.ar      1 FAD         0.0000 
     30 N5         17.6210   -1.6430   13.3240 N.2       1 FAD         0.0000 
     31 C5X        17.4010   -0.5070   14.0540 C.ar      1 FAD         0.0000 
     32 C6         16.0920    0.0300   14.0340 C.ar      1 FAD         0.0000 
     33 C7         15.7290    1.0490   14.8790 C.ar      1 FAD         0.0000 
     34 C7M        14.3190    1.5870   14.8590 C.3       1 FAD         0.0000 
     35 C8         16.6660    1.5470   15.8520 C.ar      1 FAD         0.0000 
     36 C8M        16.3340    2.7180   16.7390 C.3       1 FAD         0.0000 
     37 C9         17.9420    0.9810   15.9280 C.ar      1 FAD         0.0000 
     38 C9A        18.3310    0.0200   14.9920 C.ar      1 FAD         0.0000 
     39 N10        19.6330   -0.5660   14.9940 N.pl3     1 FAD         0.0000 
     40 C10        19.8920   -1.6530   14.2710 C.ar      1 FAD         0.0000 
     41 C1'        20.6850    0.0690   15.8130 C.3       1 FAD         0.0000 
     42 C2'        21.0540   -0.7970   17.0450 C.3       1 FAD         0.0000 
     43 O2'        19.8580   -1.0730   17.7680 O.3       1 FAD         0.0000 
     44 C3'        21.9860    0.0460   17.9030 C.3       1 FAD         0.0000 
     45 O3'        23.1720    0.2940   17.1450 O.3       1 FAD         0.0000 
     46 C4'        22.3780   -0.7320   19.1670 C.3       1 FAD         0.0000 
     47 O4'        21.2310   -1.0360   19.9620 O.3       1 FAD         0.0000 
     48 C5'        23.3750    0.1170   19.9180 C.3       1 FAD         0.0000 
     49 O5'        23.8840   -0.6520   21.1830 O.3       1 FAD         0.0000 
     50 P          24.5070    0.1030   22.3450 P.3       1 FAD         0.0000 
     51 O1P        24.9820   -0.9910   23.3090 O.2       1 FAD         0.0000 
     52 O2P        25.4370    1.0540   21.9500 O.3       1 FAD         0.0000 
     53 O3P        23.4730    0.8660   23.0320 O.3       1 FAD         0.0000 
     54 H51A       22.9631    1.5210   25.9270 H         1 FAD         0.0000 
     55 H52A       21.7181    2.6659   25.3221 H         1 FAD         0.0000 
     56 H4B        21.1215    0.2571   27.1533 H         1 FAD         0.0000 
     57 H3B        19.0330    1.6103   25.7923 H         1 FAD         0.0000 
     58 HO3A       18.7161   -0.4115   26.8137 H         1 FAD         0.0000 
     59 H2B        19.4002    3.8970   26.9859 H         1 FAD         0.0000 
     60 HO2A       17.1481    3.2725   27.4286 H         1 FAD         0.0000 
     61 H1B        19.7898    2.2057   29.4992 H         1 FAD         0.0000 
     62 H8A        21.0350    5.2920   27.4870 H         1 FAD         0.0000 
     63 H61A       22.6212    7.9848   31.2244 H         1 FAD         0.0000 
     64 H62A       22.4402    7.7921   33.1112 H         1 FAD         0.0000 
     65 H2A        20.7640    3.5760   33.7660 H         1 FAD         0.0000 
     66 HN3        20.5432   -5.0668   12.5956 H         1 FAD         0.0000 
     67 H6         15.3300   -0.3580   13.3370 H         1 FAD         0.0000 
     68 HM71       13.7503    1.0953   14.0560 H         1 FAD         0.0000 
     69 HM72       14.3431    2.6721   14.6799 H         1 FAD         0.0000 
     70 HM73       13.8360    1.3857   15.8266 H         1 FAD         0.0000 
     71 HM81       15.2979    3.0369   16.5527 H         1 FAD         0.0000 
     72 HM82       17.0190    3.5502   16.5193 H         1 FAD         0.0000 
     73 HM83       16.4427    2.4221   17.7929 H         1 FAD         0.0000 
     74 H9         18.6390    1.2910   16.7230 H         1 FAD         0.0000 
     75 H1'1       21.5903    0.2076   15.2038 H         1 FAD         0.0000 
     76 H1'2       20.3307    1.0469   16.1710 H         1 FAD         0.0000 
     77 H2'        21.4878   -1.7791   16.8058 H         1 FAD         0.0000 
     78 HO2'       19.0616   -1.6741   17.3048 H         1 FAD         0.0000 
     79 H3'        21.5298    1.0156   18.1516 H         1 FAD         0.0000 
     80 HO3'       23.1120    0.8433   16.1939 H         1 FAD         0.0000 
     81 H4'        22.7871   -1.7307   18.9541 H         1 FAD         0.0000 
     82 HO4'       20.4189   -1.6490   19.5440 H         1 FAD         0.0000 
     83 H5'1       24.2294    0.3444   19.2636 H         1 FAD         0.0000 
     84 H5'2       22.8943    1.0550   20.2327 H         1 FAD         0.0000 
     85 HOP2       26.3384    0.7464   21.3998 H         1 FAD         0.0000 
     86 H86        21.7570    5.7209   34.0225 H         1 FAD         0.0000 
@<TRIPOS>BOND
     1    1    2 2    
     2    1    3 1    
     3    1    4 1    
     4    1   53 1    
     5    4    5 1    
     6    5    6 1    
     7    5   54 1    
     8    5   55 1    
     9    6    7 1    
    10    6    8 1    
    11    6   56 1    
    12    7   12 1    
    13    8    9 1    
    14    8   10 1    
    15    8   57 1    
    16    9   58 1    
    17   10   11 1    
    18   10   12 1    
    19   10   59 1    
    20   11   60 1    
    21   12   13 1    
    22   12   61 1    
    23   13   14 ar   
    24   13   22 ar   
    25   14   15 ar   
    26   14   62 1    
    27   15   16 ar   
    28   16   17 ar   
    29   16   22 ar   
    30   17   18 1    
    31   17   19 ar   
    32   18   63 1    
    33   18   64 1    
    34   19   20 ar   
    35   19   86 1    
    36   20   21 ar   
    37   20   65 1    
    38   21   22 ar   
    39   23   24 ar   
    40   23   40 ar   
    41   24   25 2    
    42   24   26 ar   
    43   26   27 ar   
    44   26   66 1    
    45   27   28 2    
    46   27   29 ar   
    47   29   30 ar   
    48   29   40 ar   
    49   30   31 ar   
    50   31   32 ar   
    51   31   38 ar   
    52   32   33 ar   
    53   32   67 1    
    54   33   34 1    
    55   33   35 ar   
    56   34   68 1    
    57   34   69 1    
    58   34   70 1    
    59   35   36 1    
    60   35   37 ar   
    61   36   71 1    
    62   36   72 1    
    63   36   73 1    
    64   37   38 ar   
    65   37   74 1    
    66   38   39 ar   
    67   39   40 ar   
    68   39   41 1    
    69   41   42 1    
    70   41   75 1    
    71   41   76 1    
    72   42   43 1    
    73   42   44 1    
    74   42   77 1    
    75   43   78 1    
    76   44   45 1    
    77   44   46 1    
    78   44   79 1    
    79   45   80 1    
    80   46   47 1    
    81   46   48 1    
    82   46   81 1    
    83   47   82 1    
    84   48   49 1    
    85   48   83 1    
    86   48   84 1    
    87   49   50 1    
    88   50   51 2    
    89   50   52 1    
    90   50   53 1    
    91   52   85 1    
@<TRIPOS>SUBSTRUCTURE
     1 FAD         1 GROUP             0       ****    0 ROOT    
@<TRIPOS>MOLECULE
FAD
86   91    1
SMALL
USER_CHARGES


@<TRIPOS>ATOM
      1 PA         21.8380    0.8050   23.1700 P.3       1 FAD         0.0000 
      2 O1A        21.3030   -0.5190   22.7220 O.2       1 FAD         0.0000 
      3 O2A        21.2420    1.9380   22.7450 O.3       1 FAD         0.0000 
      4 O5B        21.5190    0.6820   24.6440 O.3       1 FAD         0.0000 
      5 C5B        21.8970    1.6430   25.6850 C.3       1 FAD         0.0000 
      6 C4B        20.9970    1.3300   26.9450 C.3       1 FAD         0.0000 
      7 O4B        21.4600    2.2240   28.0530 O.3       1 FAD         0.0000 
      8 C3B        19.4600    1.6220   26.8060 C.3       1 FAD         0.0000 
      9 O3B        18.6710    0.5790   27.2900 O.3       1 FAD         0.0000 
     10 C2B        19.2980    2.9730   27.5740 C.3       1 FAD         0.0000 
     11 O2B        18.0040    3.1220   28.1030 O.3       1 FAD         0.0000 
     12 C1B        20.2760    2.7830   28.6990 C.3       1 FAD         0.0000 
     13 N9A        20.8010    4.0200   29.2670 N.pl3     1 FAD         0.0000 
     14 C8A        21.1540    5.1530   28.5750 C.ar      1 FAD         0.0000 
     15 N7A        21.6680    6.0970   29.3600 N.2       1 FAD         0.0000 
     16 C5A        21.5630    5.5850   30.6310 C.ar      1 FAD         0.0000 
     17 C6A        21.9270    6.1470   31.9320 C.ar      1 FAD         0.0000 
     18 N6A        22.3520    7.3730   32.0980 N.pl3     1 FAD         0.0000 
     19 N1A        21.5850    5.3620   32.9970 N.pl3     1 FAD         0.0000 
     20 C2A        21.0280    4.1270   32.8470 C.ar      1 FAD         0.0000 
     21 N3A        20.7580    3.4920   31.6950 N.ar      1 FAD         0.0000 
     22 C4A        21.0940    4.2440   30.6070 C.ar      1 FAD         0.0000 
     23 N1         21.1130   -2.2310   14.3340 N.2       1 FAD         0.0000 
     24 C2         21.3700   -3.3170   13.6190 C.ar      1 FAD         0.0000 
     25 O2         22.4720   -3.7950   13.5580 O.2       1 FAD         0.0000 
     26 N3         20.3350   -4.0620   12.9920 N.pl3     1 FAD         0.0000 
     27 C4         19.0640   -3.5450   12.8700 C.ar      1 FAD         0.0000 
     28 O4         18.2010   -4.1990   12.3240 O.2       1 FAD         0.0000 
     29 C4X        18.8420   -2.2200   13.4310 C.ar      1 FAD         0.0000 
     30 N5         17.6210   -1.6430   13.3240 N.2       1 FAD         0.0000 
     31 C5X        17.4010   -0.5070   14.0540 C.ar      1 FAD         0.0000 
     32 C6         16.0920    0.0300   14.0340 C.ar      1 FAD         0.0000 
     33 C7         15.7290    1.0490   14.8790 C.ar      1 FAD         0.0000 
     34 C7M        14.3190    1.5870   14.8590 C.3       1 FAD         0.0000 
     35 C8         16.6660    1.5470   15.8520 C.ar      1 FAD         0.0000 
     36 C8M        16.3340    2.7180   16.7390 C.3       1 FAD         0.0000 
     37 C9         17.9420    0.9810   15.9280 C.ar      1 FAD         0.0000 
     38 C9A        18.3310    0.0200   14.9920 C.ar      1 FAD         0.0000 
     39 N10        19.6330   -0.5660   14.9940 N.pl3     1 FAD         0.0000 
     40 C10        19.8920   -1.6530   14.2710 C.ar      1 FAD         0.0000 
     41 C1'        20.6850    0.0690   15.8130 C.3       1 FAD         0.0000 
     42 C2'        21.0540   -0.7970   17.0450 C.3       1 FAD         0.0000 
     43 O2'        19.8580   -1.0730   17.7680 O.3       1 FAD         0.0000 
     44 C3'        21.9860    0.0460   17.9030 C.3       1 FAD         0.0000 
     45 O3'        23.1720    0.2940   17.1450 O.3       1 FAD         0.0000 
     46 C4'        22.3780   -0.7320   19.1670 C.3       1 FAD         0.0000 
     47 O4'        21.2310   -1.0360   19.9620 O.3       1 FAD         0.0000 
     48 C5'        23.3750    0.1170   19.9180 C.3       1 FAD         0.0000 
     49 O5'        23.8840   -0.6520   21.1830 O.3       1 FAD         0.0000 
     50 P          24.5070    0.1030   22.3450 P.3       1 FAD         0.0000 
     51 O1P        24.9820   -0.9910   23.3090 O.co2     1 FAD         0.0000 
     52 O2P        25.4370    1.0540   21.9500 O.co2     1 FAD         0.0000 
     53 O3P        23.4730    0.8660   23.0320 O.3       1 FAD         0.0000 
     54 HOA2       20.1466    2.0306   22.7825 H         1 FAD         0.0000 
     55 H51A       22.9631    1.5210   25.9270 H         1 FAD         0.0000 
     56 H52A       21.7181    2.6659   25.3221 H         1 FAD         0.0000 
     57 H4B        21.1215    0.2571   27.1533 H         1 FAD         0.0000 
     58 H3B        19.0330    1.6103   25.7923 H         1 FAD         0.0000 
     59 HO3A       18.7161   -0.4115   26.8137 H         1 FAD         0.0000 
     60 H2B        19.4002    3.8970   26.9859 H         1 FAD         0.0000 
     61 HO2A       17.1481    3.2725   27.4286 H         1 FAD         0.0000 
     62 H1B        19.7898    2.2057   29.4992 H         1 FAD         0.0000 
     63 H8A        21.0350    5.2920   27.4870 H         1 FAD         0.0000 
     64 H61A       22.6212    7.9848   31.2244 H         1 FAD         0.0000 
     65 H62A       22.4402    7.7921   33.1112 H         1 FAD         0.0000 
     66 H2A        20.7640    3.5760   33.7660 H         1 FAD         0.0000 
     67 HN3        20.5432   -5.0668   12.5956 H         1 FAD         0.0000 
     68 H6         15.3300   -0.3580   13.3370 H         1 FAD         0.0000 
     69 HM71       13.7503    1.0953   14.0560 H         1 FAD         0.0000 
     70 HM72       14.3431    2.6721   14.6799 H         1 FAD         0.0000 
     71 HM73       13.8360    1.3857   15.8266 H         1 FAD         0.0000 
     72 HM81       15.2979    3.0369   16.5527 H         1 FAD         0.0000 
     73 HM82       17.0190    3.5502   16.5193 H         1 FAD         0.0000 
     74 HM83       16.4427    2.4221   17.7929 H         1 FAD         0.0000 
     75 H9         18.6390    1.2910   16.7230 H         1 FAD         0.0000 
     76 H1'1       21.5903    0.2076   15.2038 H         1 FAD         0.0000 
     77 H1'2       20.3307    1.0469   16.1710 H         1 FAD         0.0000 
     78 H2'        21.4878   -1.7791   16.8058 H         1 FAD         0.0000 
     79 HO2'       19.0616   -1.6741   17.3048 H         1 FAD         0.0000 
     80 H3'        21.5298    1.0156   18.1516 H         1 FAD         0.0000 
     81 HO3'       23.1120    0.8433   16.1939 H         1 FAD         0.0000 
     82 H4'        22.7871   -1.7307   18.9541 H         1 FAD         0.0000 
     83 HO4'       20.4189   -1.6490   19.5440 H         1 FAD         0.0000 
     84 H5'1       24.2294    0.3444   19.2636 H         1 FAD         0.0000 
     85 H5'2       22.8943    1.0550   20.2327 H         1 FAD         0.0000 
     86 H86        21.7570    5.7209   34.0225 H         1 FAD         0.0000 
@<TRIPOS>BOND
     1    1    2 2    
     2    1    3 1    
     3    1    4 1    
     4    1   53 1    
     5    3   54 1    
     6    4    5 1    
     7    5    6 1    
     8    5   55 1    
     9    5   56 1    
    10    6    7 1    
    11    6    8 1    
    12    6   57 1    
    13    7   12 1    
    14    8    9 1    
    15    8   10 1    
    16    8   58 1    
    17    9   59 1    
    18   10   11 1    
    19   10   12 1    
    20   10   60 1    
    21   11   61 1    
    22   12   13 1    
    23   12   62 1    
    24   13   14 ar   
    25   13   22 ar   
    26   14   15 ar   
    27   14   63 1    
    28   15   16 ar   
    29   16   17 ar   
    30   16   22 ar   
    31   17   18 1    
    32   17   19 ar   
    33   18   64 1    
    34   18   65 1    
    35   19   20 ar   
    36   19   86 1    
    37   20   21 ar   
    38   20   66 1    
    39   21   22 ar   
    40   23   24 ar   
    41   23   40 ar   
    42   24   25 2    
    43   24   26 ar   
    44   26   27 ar   
    45   26   67 1    
    46   27   28 2    
    47   27   29 ar   
    48   29   30 ar   
    49   29   40 ar   
    50   30   31 ar   
    51   31   32 ar   
    52   31   38 ar   
    53   32   33 ar   
    54   32   68 1    
    55   33   34 1    
    56   33   35 ar   
    57   34   69 1    
    58   34   70 1    
    59   34   71 1    
    60   35   36 1    
    61   35   37 ar   
    62   36   72 1    
    63   36   73 1    
    64   36   74 1    
    65   37   38 ar   
    66   37   75 1    
    67   38   39 ar   
    68   39   40 ar   
    69   39   41 1    
    70   41   42 1    
    71   41   76 1    
    72   41   77 1    
    73   42   43 1    
    74   42   44 1    
    75   42   78 1    
    76   43   79 1    
    77   44   45 1    
    78   44   46 1    
    79   44   80 1    
    80   45   81 1    
    81   46   47 1    
    82   46   48 1    
    83   46   82 1    
    84   47   83 1    
    85   48   49 1    
    86   48   84 1    
    87   48   85 1    
    88   49   50 1    
    89   50   51 2    
    90   50   52 1    
    91   50   53 1    
@<TRIPOS>SUBSTRUCTURE
     1 FAD         1 GROUP             0       ****    0 ROOT    
@<TRIPOS>MOLECULE
FAD
85   90    1
SMALL
USER_CHARGES


@<TRIPOS>ATOM
      1 PA         21.8380    0.8050   23.1700 P.3       1 FAD         0.0000 
      2 O1A        21.3030   -0.5190   22.7220 O.co2     1 FAD         0.0000 
      3 O2A        21.2420    1.9380   22.7450 O.co2     1 FAD         0.0000 
      4 O5B        21.5190    0.6820   24.6440 O.3       1 FAD         0.0000 
      5 C5B        21.8970    1.6430   25.6850 C.3       1 FAD         0.0000 
      6 C4B        20.9970    1.3300   26.9450 C.3       1 FAD         0.0000 
      7 O4B        21.4600    2.2240   28.0530 O.3       1 FAD         0.0000 
      8 C3B        19.4600    1.6220   26.8060 C.3       1 FAD         0.0000 
      9 O3B        18.6710    0.5790   27.2900 O.3       1 FAD         0.0000 
     10 C2B        19.2980    2.9730   27.5740 C.3       1 FAD         0.0000 
     11 O2B        18.0040    3.1220   28.1030 O.3       1 FAD         0.0000 
     12 C1B        20.2760    2.7830   28.6990 C.3       1 FAD         0.0000 
     13 N9A        20.8010    4.0200   29.2670 N.pl3     1 FAD         0.0000 
     14 C8A        21.1540    5.1530   28.5750 C.ar      1 FAD         0.0000 
     15 N7A        21.6680    6.0970   29.3600 N.pl3     1 FAD         0.0000 
     16 C5A        21.5630    5.5850   30.6310 C.ar      1 FAD         0.0000 
     17 C6A        21.9270    6.1470   31.9320 C.ar      1 FAD         0.0000 
     18 N6A        22.3520    7.3730   32.0980 N.pl3     1 FAD         0.0000 
     19 N1A        21.5850    5.3620   32.9970 N.ar      1 FAD         0.0000 
     20 C2A        21.0280    4.1270   32.8470 C.ar      1 FAD         0.0000 
     21 N3A        20.7580    3.4920   31.6950 N.ar      1 FAD         0.0000 
     22 C4A        21.0940    4.2440   30.6070 C.ar      1 FAD         0.0000 
     23 N1         21.1130   -2.2310   14.3340 N.2       1 FAD         0.0000 
     24 C2         21.3700   -3.3170   13.6190 C.ar      1 FAD         0.0000 
     25 O2         22.4720   -3.7950   13.5580 O.2       1 FAD         0.0000 
     26 N3         20.3350   -4.0620   12.9920 N.pl3     1 FAD         0.0000 
     27 C4         19.0640   -3.5450   12.8700 C.ar      1 FAD         0.0000 
     28 O4         18.2010   -4.1990   12.3240 O.2       1 FAD         0.0000 
     29 C4X        18.8420   -2.2200   13.4310 C.ar      1 FAD         0.0000 
     30 N5         17.6210   -1.6430   13.3240 N.2       1 FAD         0.0000 
     31 C5X        17.4010   -0.5070   14.0540 C.ar      1 FAD         0.0000 
     32 C6         16.0920    0.0300   14.0340 C.ar      1 FAD         0.0000 
     33 C7         15.7290    1.0490   14.8790 C.ar      1 FAD         0.0000 
     34 C7M        14.3190    1.5870   14.8590 C.3       1 FAD         0.0000 
     35 C8         16.6660    1.5470   15.8520 C.ar      1 FAD         0.0000 
     36 C8M        16.3340    2.7180   16.7390 C.3       1 FAD         0.0000 
     37 C9         17.9420    0.9810   15.9280 C.ar      1 FAD         0.0000 
     38 C9A        18.3310    0.0200   14.9920 C.ar      1 FAD         0.0000 
     39 N10        19.6330   -0.5660   14.9940 N.pl3     1 FAD         0.0000 
     40 C10        19.8920   -1.6530   14.2710 C.ar      1 FAD         0.0000 
     41 C1'        20.6850    0.0690   15.8130 C.3       1 FAD         0.0000 
     42 C2'        21.0540   -0.7970   17.0450 C.3       1 FAD         0.0000 
     43 O2'        19.8580   -1.0730   17.7680 O.3       1 FAD         0.0000 
     44 C3'        21.9860    0.0460   17.9030 C.3       1 FAD         0.0000 
     45 O3'        23.1720    0.2940   17.1450 O.3       1 FAD         0.0000 
     46 C4'        22.3780   -0.7320   19.1670 C.3       1 FAD         0.0000 
     47 O4'        21.2310   -1.0360   19.9620 O.3       1 FAD         0.0000 
     48 C5'        23.3750    0.1170   19.9180 C.3       1 FAD         0.0000 
     49 O5'        23.8840   -0.6520   21.1830 O.3       1 FAD         0.0000 
     50 P          24.5070    0.1030   22.3450 P.3       1 FAD         0.0000 
     51 O1P        24.9820   -0.9910   23.3090 O.co2     1 FAD         0.0000 
     52 O2P        25.4370    1.0540   21.9500 O.co2     1 FAD         0.0000 
     53 O3P        23.4730    0.8660   23.0320 O.3       1 FAD         0.0000 
     54 H51A       22.9631    1.5210   25.9270 H         1 FAD         0.0000 
     55 H52A       21.7181    2.6659   25.3221 H         1 FAD         0.0000 
     56 H4B        21.1215    0.2571   27.1533 H         1 FAD         0.0000 
     57 H3B        19.0330    1.6103   25.7923 H         1 FAD         0.0000 
     58 HO3A       18.7161   -0.4115   26.8137 H         1 FAD         0.0000 
     59 H2B        19.4002    3.8970   26.9859 H         1 FAD         0.0000 
     60 HO2A       17.1481    3.2725   27.4286 H         1 FAD         0.0000 
     61 H1B        19.7898    2.2057   29.4992 H         1 FAD         0.0000 
     62 H8A        21.0350    5.2920   27.4870 H         1 FAD         0.0000 
     63 H61A       22.6212    7.9848   31.2244 H         1 FAD         0.0000 
     64 H62A       22.4402    7.7921   33.1112 H         1 FAD         0.0000 
     65 H2A        20.7640    3.5760   33.7660 H         1 FAD         0.0000 
     66 HN3        20.5432   -5.0668   12.5956 H         1 FAD         0.0000 
     67 H6         15.3300   -0.3580   13.3370 H         1 FAD         0.0000 
     68 HM71       13.7503    1.0953   14.0560 H         1 FAD         0.0000 
     69 HM72       14.3431    2.6721   14.6799 H         1 FAD         0.0000 
     70 HM73       13.8360    1.3857   15.8266 H         1 FAD         0.0000 
     71 HM81       15.2979    3.0369   16.5527 H         1 FAD         0.0000 
     72 HM82       17.0190    3.5502   16.5193 H         1 FAD         0.0000 
     73 HM83       16.4427    2.4221   17.7929 H         1 FAD         0.0000 
     74 H9         18.6390    1.2910   16.7230 H         1 FAD         0.0000 
     75 H1'1       21.5903    0.2076   15.2038 H         1 FAD         0.0000 
     76 H1'2       20.3307    1.0469   16.1710 H         1 FAD         0.0000 
     77 H2'        21.4878   -1.7791   16.8058 H         1 FAD         0.0000 
     78 HO2'       19.0616   -1.6741   17.3048 H         1 FAD         0.0000 
     79 H3'        21.5298    1.0156   18.1516 H         1 FAD         0.0000 
     80 HO3'       23.1120    0.8433   16.1939 H         1 FAD         0.0000 
     81 H4'        22.7871   -1.7307   18.9541 H         1 FAD         0.0000 
     82 HO4'       20.4189   -1.6490   19.5440 H         1 FAD         0.0000 
     83 H5'1       24.2294    0.3444   19.2636 H         1 FAD         0.0000 
     84 H5'2       22.8943    1.0550   20.2327 H         1 FAD         0.0000 
     85 H85        22.0513    7.0295   28.9202 H         1 FAD         0.0000 
@<TRIPOS>BOND
     1    1    2 2    
     2    1    3 1    
     3    1    4 1    
     4    1   53 1    
     5    4    5 1    
     6    5    6 1    
     7    5   54 1    
     8    5   55 1    
     9    6    7 1    
    10    6    8 1    
    11    6   56 1    
    12    7   12 1    
    13    8    9 1    
    14    8   10 1    
    15    8   57 1    
    16    9   58 1    
    17   10   11 1    
    18   10   12 1    
    19   10   59 1    
    20   11   60 1    
    21   12   13 1    
    22   12   61 1    
    23   13   14 ar   
    24   13   22 ar   
    25   14   15 ar   
    26   14   62 1    
    27   15   16 ar   
    28   15   85 1    
    29   16   17 ar   
    30   16   22 ar   
    31   17   18 1    
    32   17   19 ar   
    33   18   63 1    
    34   18   64 1    
    35   19   20 ar   
    36   20   21 ar   
    37   20   65 1    
    38   21   22 ar   
    39   23   24 ar   
    40   23   40 ar   
    41   24   25 2    
    42   24   26 ar   
    43   26   27 ar   
    44   26   66 1    
    45   27   28 2    
    46   27   29 ar   
    47   29   30 ar   
    48   29   40 ar   
    49   30   31 ar   
    50   31   32 ar   
    51   31   38 ar   
    52   32   33 ar   
    53   32   67 1    
    54   33   34 1    
    55   33   35 ar   
    56   34   68 1    
    57   34   69 1    
    58   34   70 1    
    59   35   36 1    
    60   35   37 ar   
    61   36   71 1    
    62   36   72 1    
    63   36   73 1    
    64   37   38 ar   
    65   37   74 1    
    66   38   39 ar   
    67   39   40 ar   
    68   39   41 1    
    69   41   42 1    
    70   41   75 1    
    71   41   76 1    
    72   42   43 1    
    73   42   44 1    
    74   42   77 1    
    75   43   78 1    
    76   44   45 1    
    77   44   46 1    
    78   44   79 1    
    79   45   80 1    
    80   46   47 1    
    81   46   48 1    
    82   46   81 1    
    83   47   82 1    
    84   48   49 1    
    85   48   83 1    
    86   48   84 1    
    87   49   50 1    
    88   50   51 2    
    89   50   52 1    
    90   50   53 1    
@<TRIPOS>SUBSTRUCTURE
     1 FAD         1 GROUP             0       ****    0 ROOT    
@<TRIPOS>MOLECULE
FAD
86   91    1
SMALL
USER_CHARGES


@<TRIPOS>ATOM
      1 PA         21.8380    0.8050   23.1700 P.3       1 FAD         0.0000 
      2 O1A        21.3030   -0.5190   22.7220 O.2       1 FAD         0.0000 
      3 O2A        21.2420    1.9380   22.7450 O.3       1 FAD         0.0000 
      4 O5B        21.5190    0.6820   24.6440 O.3       1 FAD         0.0000 
      5 C5B        21.8970    1.6430   25.6850 C.3       1 FAD         0.0000 
      6 C4B        20.9970    1.3300   26.9450 C.3       1 FAD         0.0000 
      7 O4B        21.4600    2.2240   28.0530 O.3       1 FAD         0.0000 
      8 C3B        19.4600    1.6220   26.8060 C.3       1 FAD         0.0000 
      9 O3B        18.6710    0.5790   27.2900 O.3       1 FAD         0.0000 
     10 C2B        19.2980    2.9730   27.5740 C.3       1 FAD         0.0000 
     11 O2B        18.0040    3.1220   28.1030 O.3       1 FAD         0.0000 
     12 C1B        20.2760    2.7830   28.6990 C.3       1 FAD         0.0000 
     13 N9A        20.8010    4.0200   29.2670 N.pl3     1 FAD         0.0000 
     14 C8A        21.1540    5.1530   28.5750 C.ar      1 FAD         0.0000 
     15 N7A        21.6680    6.0970   29.3600 N.2       1 FAD         0.0000 
     16 C5A        21.5630    5.5850   30.6310 C.ar      1 FAD         0.0000 
     17 C6A        21.9270    6.1470   31.9320 C.ar      1 FAD         0.0000 
     18 N6A        22.3520    7.3730   32.0980 N.pl3     1 FAD         0.0000 
     19 N1A        21.5850    5.3620   32.9970 N.ar      1 FAD         0.0000 
     20 C2A        21.0280    4.1270   32.8470 C.ar      1 FAD         0.0000 
     21 N3A        20.7580    3.4920   31.6950 N.ar      1 FAD         0.0000 
     22 C4A        21.0940    4.2440   30.6070 C.ar      1 FAD         0.0000 
     23 N1         21.1130   -2.2310   14.3340 N.2       1 FAD         0.0000 
     24 C2         21.3700   -3.3170   13.6190 C.ar      1 FAD         0.0000 
     25 O2         22.4720   -3.7950   13.5580 O.2       1 FAD         0.0000 
     26 N3         20.3350   -4.0620   12.9920 N.pl3     1 FAD         0.0000 
     27 C4         19.0640   -3.5450   12.8700 C.ar      1 FAD         0.0000 
     28 O4         18.2010   -4.1990   12.3240 O.2       1 FAD         0.0000 
     29 C4X        18.8420   -2.2200   13.4310 C.ar      1 FAD         0.0000 
     30 N5         17.6210   -1.6430   13.3240 N.2       1 FAD         0.0000 
     31 C5X        17.4010   -0.5070   14.0540 C.ar      1 FAD         0.0000 
     32 C6         16.0920    0.0300   14.0340 C.ar      1 FAD         0.0000 
     33 C7         15.7290    1.0490   14.8790 C.ar      1 FAD         0.0000 
     34 C7M        14.3190    1.5870   14.8590 C.3       1 FAD         0.0000 
     35 C8         16.6660    1.5470   15.8520 C.ar      1 FAD         0.0000 
     36 C8M        16.3340    2.7180   16.7390 C.3       1 FAD         0.0000 
     37 C9         17.9420    0.9810   15.9280 C.ar      1 FAD         0.0000 
     38 C9A        18.3310    0.0200   14.9920 C.ar      1 FAD         0.0000 
     39 N10        19.6330   -0.5660   14.9940 N.pl3     1 FAD         0.0000 
     40 C10        19.8920   -1.6530   14.2710 C.ar      1 FAD         0.0000 
     41 C1'        20.6850    0.0690   15.8130 C.3       1 FAD         0.0000 
     42 C2'        21.0540   -0.7970   17.0450 C.3       1 FAD         0.0000 
     43 O2'        19.8580   -1.0730   17.7680 O.3       1 FAD         0.0000 
     44 C3'        21.9860    0.0460   17.9030 C.3       1 FAD         0.0000 
     45 O3'        23.1720    0.2940   17.1450 O.3       1 FAD         0.0000 
     46 C4'        22.3780   -0.7320   19.1670 C.3       1 FAD         0.0000 
     47 O4'        21.2310   -1.0360   19.9620 O.3       1 FAD         0.0000 
     48 C5'        23.3750    0.1170   19.9180 C.3       1 FAD         0.0000 
     49 O5'        23.8840   -0.6520   21.1830 O.3       1 FAD         0.0000 
     50 P          24.5070    0.1030   22.3450 P.3       1 FAD         0.0000 
     51 O1P        24.9820   -0.9910   23.3090 O.2       1 FAD         0.0000 
     52 O2P        25.4370    1.0540   21.9500 O.3       1 FAD         0.0000 
     53 O3P        23.4730    0.8660   23.0320 O.3       1 FAD         0.0000 
     54 HOA2       20.1466    2.0306   22.7825 H         1 FAD         0.0000 
     55 H51A       22.9631    1.5210   25.9270 H         1 FAD         0.0000 
     56 H52A       21.7181    2.6659   25.3221 H         1 FAD         0.0000 
     57 H4B        21.1215    0.2571   27.1533 H         1 FAD         0.0000 
     58 H3B        19.0330    1.6103   25.7923 H         1 FAD         0.0000 
     59 HO3A       18.7161   -0.4115   26.8137 H         1 FAD         0.0000 
     60 H2B        19.4002    3.8970   26.9859 H         1 FAD         0.0000 
     61 HO2A       17.1481    3.2725   27.4286 H         1 FAD         0.0000 
     62 H1B        19.7898    2.2057   29.4992 H         1 FAD         0.0000 
     63 H8A        21.0350    5.2920   27.4870 H         1 FAD         0.0000 
     64 H61A       22.6212    7.9848   31.2244 H         1 FAD         0.0000 
     65 H62A       22.4402    7.7921   33.1112 H         1 FAD         0.0000 
     66 H2A        20.7640    3.5760   33.7660 H         1 FAD         0.0000 
     67 HN3        20.5432   -5.0668   12.5956 H         1 FAD         0.0000 
     68 H6         15.3300   -0.3580   13.3370 H         1 FAD         0.0000 
     69 HM71       13.7503    1.0953   14.0560 H         1 FAD         0.0000 
     70 HM72       14.3431    2.6721   14.6799 H         1 FAD         0.0000 
     71 HM73       13.8360    1.3857   15.8266 H         1 FAD         0.0000 
     72 HM81       15.2979    3.0369   16.5527 H         1 FAD         0.0000 
     73 HM82       17.0190    3.5502   16.5193 H         1 FAD         0.0000 
     74 HM83       16.4427    2.4221   17.7929 H         1 FAD         0.0000 
     75 H9         18.6390    1.2910   16.7230 H         1 FAD         0.0000 
     76 H1'1       21.5903    0.2076   15.2038 H         1 FAD         0.0000 
     77 H1'2       20.3307    1.0469   16.1710 H         1 FAD         0.0000 
     78 H2'        21.4878   -1.7791   16.8058 H         1 FAD         0.0000 
     79 HO2'       19.0616   -1.6741   17.3048 H         1 FAD         0.0000 
     80 H3'        21.5298    1.0156   18.1516 H         1 FAD         0.0000 
     81 HO3'       23.1120    0.8433   16.1939 H         1 FAD         0.0000 
     82 H4'        22.7871   -1.7307   18.9541 H         1 FAD         0.0000 
     83 HO4'       20.4189   -1.6490   19.5440 H         1 FAD         0.0000 
     84 H5'1       24.2294    0.3444   19.2636 H         1 FAD         0.0000 
     85 H5'2       22.8943    1.0550   20.2327 H         1 FAD         0.0000 
     86 HOP2       26.3384    0.7464   21.3998 H         1 FAD         0.0000 
@<TRIPOS>BOND
     1    1    2 2    
     2    1    3 1    
     3    1    4 1    
     4    1   53 1    
     5    3   54 1    
     6    4    5 1    
     7    5    6 1    
     8    5   55 1    
     9    5   56 1    
    10    6    7 1    
    11    6    8 1    
    12    6   57 1    
    13    7   12 1    
    14    8    9 1    
    15    8   10 1    
    16    8   58 1    
    17    9   59 1    
    18   10   11 1    
    19   10   12 1    
    20   10   60 1    
    21   11   61 1    
    22   12   13 1    
    23   12   62 1    
    24   13   14 ar   
    25   13   22 ar   
    26   14   15 ar   
    27   14   63 1    
    28   15   16 ar   
    29   16   17 ar   
    30   16   22 ar   
    31   17   18 1    
    32   17   19 ar   
    33   18   64 1    
    34   18   65 1    
    35   19   20 ar   
    36   20   21 ar   
    37   20   66 1    
    38   21   22 ar   
    39   23   24 ar   
    40   23   40 ar   
    41   24   25 2    
    42   24   26 ar   
    43   26   27 ar   
    44   26   67 1    
    45   27   28 2    
    46   27   29 ar   
    47   29   30 ar   
    48   29   40 ar   
    49   30   31 ar   
    50   31   32 ar   
    51   31   38 ar   
    52   32   33 ar   
    53   32   68 1    
    54   33   34 1    
    55   33   35 ar   
    56   34   69 1    
    57   34   70 1    
    58   34   71 1    
    59   35   36 1    
    60   35   37 ar   
    61   36   72 1    
    62   36   73 1    
    63   36   74 1    
    64   37   38 ar   
    65   37   75 1    
    66   38   39 ar   
    67   39   40 ar   
    68   39   41 1    
    69   41   42 1    
    70   41   76 1    
    71   41   77 1    
    72   42   43 1    
    73   42   44 1    
    74   42   78 1    
    75   43   79 1    
    76   44   45 1    
    77   44   46 1    
    78   44   80 1    
    79   45   81 1    
    80   46   47 1    
    81   46   48 1    
    82   46   82 1    
    83   47   83 1    
    84   48   49 1    
    85   48   84 1    
    86   48   85 1    
    87   49   50 1    
    88   50   51 2    
    89   50   52 1    
    90   50   53 1    
    91   52   86 1    
@<TRIPOS>SUBSTRUCTURE
     1 FAD         1 GROUP             0       ****    0 ROOT    
@<TRIPOS>MOLECULE
FAD
86   91    1
SMALL
USER_CHARGES


@<TRIPOS>ATOM
      1 PA         21.8380    0.8050   23.1700 P.3       1 FAD         0.0000 
      2 O1A        21.3030   -0.5190   22.7220 O.co2     1 FAD         0.0000 
      3 O2A        21.2420    1.9380   22.7450 O.co2     1 FAD         0.0000 
      4 O5B        21.5190    0.6820   24.6440 O.3       1 FAD         0.0000 
      5 C5B        21.8970    1.6430   25.6850 C.3       1 FAD         0.0000 
      6 C4B        20.9970    1.3300   26.9450 C.3       1 FAD         0.0000 
      7 O4B        21.4600    2.2240   28.0530 O.3       1 FAD         0.0000 
      8 C3B        19.4600    1.6220   26.8060 C.3       1 FAD         0.0000 
      9 O3B        18.6710    0.5790   27.2900 O.3       1 FAD         0.0000 
     10 C2B        19.2980    2.9730   27.5740 C.3       1 FAD         0.0000 
     11 O2B        18.0040    3.1220   28.1030 O.3       1 FAD         0.0000 
     12 C1B        20.2760    2.7830   28.6990 C.3       1 FAD         0.0000 
     13 N9A        20.8010    4.0200   29.2670 N.pl3     1 FAD         0.0000 
     14 C8A        21.1540    5.1530   28.5750 C.ar      1 FAD         0.0000 
     15 N7A        21.6680    6.0970   29.3600 N.pl3     1 FAD         0.0000 
     16 C5A        21.5630    5.5850   30.6310 C.ar      1 FAD         0.0000 
     17 C6A        21.9270    6.1470   31.9320 C.ar      1 FAD         0.0000 
     18 N6A        22.3520    7.3730   32.0980 N.pl3     1 FAD         0.0000 
     19 N1A        21.5850    5.3620   32.9970 N.ar      1 FAD         0.0000 
     20 C2A        21.0280    4.1270   32.8470 C.ar      1 FAD         0.0000 
     21 N3A        20.7580    3.4920   31.6950 N.ar      1 FAD         0.0000 
     22 C4A        21.0940    4.2440   30.6070 C.ar      1 FAD         0.0000 
     23 N1         21.1130   -2.2310   14.3340 N.2       1 FAD         0.0000 
     24 C2         21.3700   -3.3170   13.6190 C.ar      1 FAD         0.0000 
     25 O2         22.4720   -3.7950   13.5580 O.2       1 FAD         0.0000 
     26 N3         20.3350   -4.0620   12.9920 N.pl3     1 FAD         0.0000 
     27 C4         19.0640   -3.5450   12.8700 C.ar      1 FAD         0.0000 
     28 O4         18.2010   -4.1990   12.3240 O.2       1 FAD         0.0000 
     29 C4X        18.8420   -2.2200   13.4310 C.ar      1 FAD         0.0000 
     30 N5         17.6210   -1.6430   13.3240 N.2       1 FAD         0.0000 
     31 C5X        17.4010   -0.5070   14.0540 C.ar      1 FAD         0.0000 
     32 C6         16.0920    0.0300   14.0340 C.ar      1 FAD         0.0000 
     33 C7         15.7290    1.0490   14.8790 C.ar      1 FAD         0.0000 
     34 C7M        14.3190    1.5870   14.8590 C.3       1 FAD         0.0000 
     35 C8         16.6660    1.5470   15.8520 C.ar      1 FAD         0.0000 
     36 C8M        16.3340    2.7180   16.7390 C.3       1 FAD         0.0000 
     37 C9         17.9420    0.9810   15.9280 C.ar      1 FAD         0.0000 
     38 C9A        18.3310    0.0200   14.9920 C.ar      1 FAD         0.0000 
     39 N10        19.6330   -0.5660   14.9940 N.pl3     1 FAD         0.0000 
     40 C10        19.8920   -1.6530   14.2710 C.ar      1 FAD         0.0000 
     41 C1'        20.6850    0.0690   15.8130 C.3       1 FAD         0.0000 
     42 C2'        21.0540   -0.7970   17.0450 C.3       1 FAD         0.0000 
     43 O2'        19.8580   -1.0730   17.7680 O.3       1 FAD         0.0000 
     44 C3'        21.9860    0.0460   17.9030 C.3       1 FAD         0.0000 
     45 O3'        23.1720    0.2940   17.1450 O.3       1 FAD         0.0000 
     46 C4'        22.3780   -0.7320   19.1670 C.3       1 FAD         0.0000 
     47 O4'        21.2310   -1.0360   19.9620 O.3       1 FAD         0.0000 
     48 C5'        23.3750    0.1170   19.9180 C.3       1 FAD         0.0000 
     49 O5'        23.8840   -0.6520   21.1830 O.3       1 FAD         0.0000 
     50 P          24.5070    0.1030   22.3450 P.3       1 FAD         0.0000 
     51 O1P        24.9820   -0.9910   23.3090 O.2       1 FAD         0.0000 
     52 O2P        25.4370    1.0540   21.9500 O.3       1 FAD         0.0000 
     53 O3P        23.4730    0.8660   23.0320 O.3       1 FAD         0.0000 
     54 H51A       22.9631    1.5210   25.9270 H         1 FAD         0.0000 
     55 H52A       21.7181    2.6659   25.3221 H         1 FAD         0.0000 
     56 H4B        21.1215    0.2571   27.1533 H         1 FAD         0.0000 
     57 H3B        19.0330    1.6103   25.7923 H         1 FAD         0.0000 
     58 HO3A       18.7161   -0.4115   26.8137 H         1 FAD         0.0000 
     59 H2B        19.4002    3.8970   26.9859 H         1 FAD         0.0000 
     60 HO2A       17.1481    3.2725   27.4286 H         1 FAD         0.0000 
     61 H1B        19.7898    2.2057   29.4992 H         1 FAD         0.0000 
     62 H8A        21.0350    5.2920   27.4870 H         1 FAD         0.0000 
     63 H61A       22.6212    7.9848   31.2244 H         1 FAD         0.0000 
     64 H62A       22.4402    7.7921   33.1112 H         1 FAD         0.0000 
     65 H2A        20.7640    3.5760   33.7660 H         1 FAD         0.0000 
     66 HN3        20.5432   -5.0668   12.5956 H         1 FAD         0.0000 
     67 H6         15.3300   -0.3580   13.3370 H         1 FAD         0.0000 
     68 HM71       13.7503    1.0953   14.0560 H         1 FAD         0.0000 
     69 HM72       14.3431    2.6721   14.6799 H         1 FAD         0.0000 
     70 HM73       13.8360    1.3857   15.8266 H         1 FAD         0.0000 
     71 HM81       15.2979    3.0369   16.5527 H         1 FAD         0.0000 
     72 HM82       17.0190    3.5502   16.5193 H         1 FAD         0.0000 
     73 HM83       16.4427    2.4221   17.7929 H         1 FAD         0.0000 
     74 H9         18.6390    1.2910   16.7230 H         1 FAD         0.0000 
     75 H1'1       21.5903    0.2076   15.2038 H         1 FAD         0.0000 
     76 H1'2       20.3307    1.0469   16.1710 H         1 FAD         0.0000 
     77 H2'        21.4878   -1.7791   16.8058 H         1 FAD         0.0000 
     78 HO2'       19.0616   -1.6741   17.3048 H         1 FAD         0.0000 
     79 H3'        21.5298    1.0156   18.1516 H         1 FAD         0.0000 
     80 HO3'       23.1120    0.8433   16.1939 H         1 FAD         0.0000 
     81 H4'        22.7871   -1.7307   18.9541 H         1 FAD         0.0000 
     82 HO4'       20.4189   -1.6490   19.5440 H         1 FAD         0.0000 
     83 H5'1       24.2294    0.3444   19.2636 H         1 FAD         0.0000 
     84 H5'2       22.8943    1.0550   20.2327 H         1 FAD         0.0000 
     85 HOP2       26.3384    0.7464   21.3998 H         1 FAD         0.0000 
     86 H86        22.0513    7.0295   28.9202 H         1 FAD         0.0000 
@<TRIPOS>BOND
     1    1    2 2    
     2    1    3 1    
     3    1    4 1    
     4    1   53 1    
     5    4    5 1    
     6    5    6 1    
     7    5   54 1    
     8    5   55 1    
     9    6    7 1    
    10    6    8 1    
    11    6   56 1    
    12    7   12 1    
    13    8    9 1    
    14    8   10 1    
    15    8   57 1    
    16    9   58 1    
    17   10   11 1    
    18   10   12 1    
    19   10   59 1    
    20   11   60 1    
    21   12   13 1    
    22   12   61 1    
    23   13   14 ar   
    24   13   22 ar   
    25   14   15 ar   
    26   14   62 1    
    27   15   16 ar   
    28   15   86 1    
    29   16   17 ar   
    30   16   22 ar   
    31   17   18 1    
    32   17   19 ar   
    33   18   63 1    
    34   18   64 1    
    35   19   20 ar   
    36   20   21 ar   
    37   20   65 1    
    38   21   22 ar   
    39   23   24 ar   
    40   23   40 ar   
    41   24   25 2    
    42   24   26 ar   
    43   26   27 ar   
    44   26   66 1    
    45   27   28 2    
    46   27   29 ar   
    47   29   30 ar   
    48   29   40 ar   
    49   30   31 ar   
    50   31   32 ar   
    51   31   38 ar   
    52   32   33 ar   
    53   32   67 1    
    54   33   34 1    
    55   33   35 ar   
    56   34   68 1    
    57   34   69 1    
    58   34   70 1    
    59   35   36 1    
    60   35   37 ar   
    61   36   71 1    
    62   36   72 1    
    63   36   73 1    
    64   37   38 ar   
    65   37   74 1    
    66   38   39 ar   
    67   39   40 ar   
    68   39   41 1    
    69   41   42 1    
    70   41   75 1    
    71   41   76 1    
    72   42   43 1    
    73   42   44 1    
    74   42   77 1    
    75   43   78 1    
    76   44   45 1    
    77   44   46 1    
    78   44   79 1    
    79   45   80 1    
    80   46   47 1    
    81   46   48 1    
    82   46   81 1    
    83   47   82 1    
    84   48   49 1    
    85   48   83 1    
    86   48   84 1    
    87   49   50 1    
    88   50   51 2    
    89   50   52 1    
    90   50   53 1    
    91   52   85 1    
@<TRIPOS>SUBSTRUCTURE
     1 FAD         1 GROUP             0       ****    0 ROOT    
@<TRIPOS>MOLECULE
FAD
86   91    1
SMALL
USER_CHARGES


@<TRIPOS>ATOM
      1 PA         21.8380    0.8050   23.1700 P.3       1 FAD         0.0000 
      2 O1A        21.3030   -0.5190   22.7220 O.2       1 FAD         0.0000 
      3 O2A        21.2420    1.9380   22.7450 O.3       1 FAD         0.0000 
      4 O5B        21.5190    0.6820   24.6440 O.3       1 FAD         0.0000 
      5 C5B        21.8970    1.6430   25.6850 C.3       1 FAD         0.0000 
      6 C4B        20.9970    1.3300   26.9450 C.3       1 FAD         0.0000 
      7 O4B        21.4600    2.2240   28.0530 O.3       1 FAD         0.0000 
      8 C3B        19.4600    1.6220   26.8060 C.3       1 FAD         0.0000 
      9 O3B        18.6710    0.5790   27.2900 O.3       1 FAD         0.0000 
     10 C2B        19.2980    2.9730   27.5740 C.3       1 FAD         0.0000 
     11 O2B        18.0040    3.1220   28.1030 O.3       1 FAD         0.0000 
     12 C1B        20.2760    2.7830   28.6990 C.3       1 FAD         0.0000 
     13 N9A        20.8010    4.0200   29.2670 N.pl3     1 FAD         0.0000 
     14 C8A        21.1540    5.1530   28.5750 C.ar      1 FAD         0.0000 
     15 N7A        21.6680    6.0970   29.3600 N.pl3     1 FAD         0.0000 
     16 C5A        21.5630    5.5850   30.6310 C.ar      1 FAD         0.0000 
     17 C6A        21.9270    6.1470   31.9320 C.ar      1 FAD         0.0000 
     18 N6A        22.3520    7.3730   32.0980 N.pl3     1 FAD         0.0000 
     19 N1A        21.5850    5.3620   32.9970 N.ar      1 FAD         0.0000 
     20 C2A        21.0280    4.1270   32.8470 C.ar      1 FAD         0.0000 
     21 N3A        20.7580    3.4920   31.6950 N.ar      1 FAD         0.0000 
     22 C4A        21.0940    4.2440   30.6070 C.ar      1 FAD         0.0000 
     23 N1         21.1130   -2.2310   14.3340 N.2       1 FAD         0.0000 
     24 C2         21.3700   -3.3170   13.6190 C.ar      1 FAD         0.0000 
     25 O2         22.4720   -3.7950   13.5580 O.2       1 FAD         0.0000 
     26 N3         20.3350   -4.0620   12.9920 N.pl3     1 FAD         0.0000 
     27 C4         19.0640   -3.5450   12.8700 C.ar      1 FAD         0.0000 
     28 O4         18.2010   -4.1990   12.3240 O.2       1 FAD         0.0000 
     29 C4X        18.8420   -2.2200   13.4310 C.ar      1 FAD         0.0000 
     30 N5         17.6210   -1.6430   13.3240 N.2       1 FAD         0.0000 
     31 C5X        17.4010   -0.5070   14.0540 C.ar      1 FAD         0.0000 
     32 C6         16.0920    0.0300   14.0340 C.ar      1 FAD         0.0000 
     33 C7         15.7290    1.0490   14.8790 C.ar      1 FAD         0.0000 
     34 C7M        14.3190    1.5870   14.8590 C.3       1 FAD         0.0000 
     35 C8         16.6660    1.5470   15.8520 C.ar      1 FAD         0.0000 
     36 C8M        16.3340    2.7180   16.7390 C.3       1 FAD         0.0000 
     37 C9         17.9420    0.9810   15.9280 C.ar      1 FAD         0.0000 
     38 C9A        18.3310    0.0200   14.9920 C.ar      1 FAD         0.0000 
     39 N10        19.6330   -0.5660   14.9940 N.pl3     1 FAD         0.0000 
     40 C10        19.8920   -1.6530   14.2710 C.ar      1 FAD         0.0000 
     41 C1'        20.6850    0.0690   15.8130 C.3       1 FAD         0.0000 
     42 C2'        21.0540   -0.7970   17.0450 C.3       1 FAD         0.0000 
     43 O2'        19.8580   -1.0730   17.7680 O.3       1 FAD         0.0000 
     44 C3'        21.9860    0.0460   17.9030 C.3       1 FAD         0.0000 
     45 O3'        23.1720    0.2940   17.1450 O.3       1 FAD         0.0000 
     46 C4'        22.3780   -0.7320   19.1670 C.3       1 FAD         0.0000 
     47 O4'        21.2310   -1.0360   19.9620 O.3       1 FAD         0.0000 
     48 C5'        23.3750    0.1170   19.9180 C.3       1 FAD         0.0000 
     49 O5'        23.8840   -0.6520   21.1830 O.3       1 FAD         0.0000 
     50 P          24.5070    0.1030   22.3450 P.3       1 FAD         0.0000 
     51 O1P        24.9820   -0.9910   23.3090 O.co2     1 FAD         0.0000 
     52 O2P        25.4370    1.0540   21.9500 O.co2     1 FAD         0.0000 
     53 O3P        23.4730    0.8660   23.0320 O.3       1 FAD         0.0000 
     54 HOA2       20.1466    2.0306   22.7825 H         1 FAD         0.0000 
     55 H51A       22.9631    1.5210   25.9270 H         1 FAD         0.0000 
     56 H52A       21.7181    2.6659   25.3221 H         1 FAD         0.0000 
     57 H4B        21.1215    0.2571   27.1533 H         1 FAD         0.0000 
     58 H3B        19.0330    1.6103   25.7923 H         1 FAD         0.0000 
     59 HO3A       18.7161   -0.4115   26.8137 H         1 FAD         0.0000 
     60 H2B        19.4002    3.8970   26.9859 H         1 FAD         0.0000 
     61 HO2A       17.1481    3.2725   27.4286 H         1 FAD         0.0000 
     62 H1B        19.7898    2.2057   29.4992 H         1 FAD         0.0000 
     63 H8A        21.0350    5.2920   27.4870 H         1 FAD         0.0000 
     64 H61A       22.6212    7.9848   31.2244 H         1 FAD         0.0000 
     65 H62A       22.4402    7.7921   33.1112 H         1 FAD         0.0000 
     66 H2A        20.7640    3.5760   33.7660 H         1 FAD         0.0000 
     67 HN3        20.5432   -5.0668   12.5956 H         1 FAD         0.0000 
     68 H6         15.3300   -0.3580   13.3370 H         1 FAD         0.0000 
     69 HM71       13.7503    1.0953   14.0560 H         1 FAD         0.0000 
     70 HM72       14.3431    2.6721   14.6799 H         1 FAD         0.0000 
     71 HM73       13.8360    1.3857   15.8266 H         1 FAD         0.0000 
     72 HM81       15.2979    3.0369   16.5527 H         1 FAD         0.0000 
     73 HM82       17.0190    3.5502   16.5193 H         1 FAD         0.0000 
     74 HM83       16.4427    2.4221   17.7929 H         1 FAD         0.0000 
     75 H9         18.6390    1.2910   16.7230 H         1 FAD         0.0000 
     76 H1'1       21.5903    0.2076   15.2038 H         1 FAD         0.0000 
     77 H1'2       20.3307    1.0469   16.1710 H         1 FAD         0.0000 
     78 H2'        21.4878   -1.7791   16.8058 H         1 FAD         0.0000 
     79 HO2'       19.0616   -1.6741   17.3048 H         1 FAD         0.0000 
     80 H3'        21.5298    1.0156   18.1516 H         1 FAD         0.0000 
     81 HO3'       23.1120    0.8433   16.1939 H         1 FAD         0.0000 
     82 H4'        22.7871   -1.7307   18.9541 H         1 FAD         0.0000 
     83 HO4'       20.4189   -1.6490   19.5440 H         1 FAD         0.0000 
     84 H5'1       24.2294    0.3444   19.2636 H         1 FAD         0.0000 
     85 H5'2       22.8943    1.0550   20.2327 H         1 FAD         0.0000 
     86 H86        22.0513    7.0295   28.9202 H         1 FAD         0.0000 
@<TRIPOS>BOND
     1    1    2 2    
     2    1    3 1    
     3    1    4 1    
     4    1   53 1    
     5    3   54 1    
     6    4    5 1    
     7    5    6 1    
     8    5   55 1    
     9    5   56 1    
    10    6    7 1    
    11    6    8 1    
    12    6   57 1    
    13    7   12 1    
    14    8    9 1    
    15    8   10 1    
    16    8   58 1    
    17    9   59 1    
    18   10   11 1    
    19   10   12 1    
    20   10   60 1    
    21   11   61 1    
    22   12   13 1    
    23   12   62 1    
    24   13   14 ar   
    25   13   22 ar   
    26   14   15 ar   
    27   14   63 1    
    28   15   16 ar   
    29   15   86 1    
    30   16   17 ar   
    31   16   22 ar   
    32   17   18 1    
    33   17   19 ar   
    34   18   64 1    
    35   18   65 1    
    36   19   20 ar   
    37   20   21 ar   
    38   20   66 1    
    39   21   22 ar   
    40   23   24 ar   
    41   23   40 ar   
    42   24   25 2    
    43   24   26 ar   
    44   26   27 ar   
    45   26   67 1    
    46   27   28 2    
    47   27   29 ar   
    48   29   30 ar   
    49   29   40 ar   
    50   30   31 ar   
    51   31   32 ar   
    52   31   38 ar   
    53   32   33 ar   
    54   32   68 1    
    55   33   34 1    
    56   33   35 ar   
    57   34   69 1    
    58   34   70 1    
    59   34   71 1    
    60   35   36 1    
    61   35   37 ar   
    62   36   72 1    
    63   36   73 1    
    64   36   74 1    
    65   37   38 ar   
    66   37   75 1    
    67   38   39 ar   
    68   39   40 ar   
    69   39   41 1    
    70   41   42 1    
    71   41   76 1    
    72   41   77 1    
    73   42   43 1    
    74   42   44 1    
    75   42   78 1    
    76   43   79 1    
    77   44   45 1    
    78   44   46 1    
    79   44   80 1    
    80   45   81 1    
    81   46   47 1    
    82   46   48 1    
    83   46   82 1    
    84   47   83 1    
    85   48   49 1    
    86   48   84 1    
    87   48   85 1    
    88   49   50 1    
    89   50   51 2    
    90   50   52 1    
    91   50   53 1    
@<TRIPOS>SUBSTRUCTURE
     1 FAD         1 GROUP             0       ****    0 ROOT    
@<TRIPOS>MOLECULE
FAD
87   92    1
SMALL
USER_CHARGES


@<TRIPOS>ATOM
      1 PA         21.8380    0.8050   23.1700 P.3       1 FAD         0.0000 
      2 O1A        21.3030   -0.5190   22.7220 O.2       1 FAD         0.0000 
      3 O2A        21.2420    1.9380   22.7450 O.3       1 FAD         0.0000 
      4 O5B        21.5190    0.6820   24.6440 O.3       1 FAD         0.0000 
      5 C5B        21.8970    1.6430   25.6850 C.3       1 FAD         0.0000 
      6 C4B        20.9970    1.3300   26.9450 C.3       1 FAD         0.0000 
      7 O4B        21.4600    2.2240   28.0530 O.3       1 FAD         0.0000 
      8 C3B        19.4600    1.6220   26.8060 C.3       1 FAD         0.0000 
      9 O3B        18.6710    0.5790   27.2900 O.3       1 FAD         0.0000 
     10 C2B        19.2980    2.9730   27.5740 C.3       1 FAD         0.0000 
     11 O2B        18.0040    3.1220   28.1030 O.3       1 FAD         0.0000 
     12 C1B        20.2760    2.7830   28.6990 C.3       1 FAD         0.0000 
     13 N9A        20.8010    4.0200   29.2670 N.pl3     1 FAD         0.0000 
     14 C8A        21.1540    5.1530   28.5750 C.ar      1 FAD         0.0000 
     15 N7A        21.6680    6.0970   29.3600 N.2       1 FAD         0.0000 
     16 C5A        21.5630    5.5850   30.6310 C.ar      1 FAD         0.0000 
     17 C6A        21.9270    6.1470   31.9320 C.ar      1 FAD         0.0000 
     18 N6A        22.3520    7.3730   32.0980 N.pl3     1 FAD         0.0000 
     19 N1A        21.5850    5.3620   32.9970 N.pl3     1 FAD         0.0000 
     20 C2A        21.0280    4.1270   32.8470 C.ar      1 FAD         0.0000 
     21 N3A        20.7580    3.4920   31.6950 N.ar      1 FAD         0.0000 
     22 C4A        21.0940    4.2440   30.6070 C.ar      1 FAD         0.0000 
     23 N1         21.1130   -2.2310   14.3340 N.2       1 FAD         0.0000 
     24 C2         21.3700   -3.3170   13.6190 C.ar      1 FAD         0.0000 
     25 O2         22.4720   -3.7950   13.5580 O.2       1 FAD         0.0000 
     26 N3         20.3350   -4.0620   12.9920 N.pl3     1 FAD         0.0000 
     27 C4         19.0640   -3.5450   12.8700 C.ar      1 FAD         0.0000 
     28 O4         18.2010   -4.1990   12.3240 O.2       1 FAD         0.0000 
     29 C4X        18.8420   -2.2200   13.4310 C.ar      1 FAD         0.0000 
     30 N5         17.6210   -1.6430   13.3240 N.2       1 FAD         0.0000 
     31 C5X        17.4010   -0.5070   14.0540 C.ar      1 FAD         0.0000 
     32 C6         16.0920    0.0300   14.0340 C.ar      1 FAD         0.0000 
     33 C7         15.7290    1.0490   14.8790 C.ar      1 FAD         0.0000 
     34 C7M        14.3190    1.5870   14.8590 C.3       1 FAD         0.0000 
     35 C8         16.6660    1.5470   15.8520 C.ar      1 FAD         0.0000 
     36 C8M        16.3340    2.7180   16.7390 C.3       1 FAD         0.0000 
     37 C9         17.9420    0.9810   15.9280 C.ar      1 FAD         0.0000 
     38 C9A        18.3310    0.0200   14.9920 C.ar      1 FAD         0.0000 
     39 N10        19.6330   -0.5660   14.9940 N.pl3     1 FAD         0.0000 
     40 C10        19.8920   -1.6530   14.2710 C.ar      1 FAD         0.0000 
     41 C1'        20.6850    0.0690   15.8130 C.3       1 FAD         0.0000 
     42 C2'        21.0540   -0.7970   17.0450 C.3       1 FAD         0.0000 
     43 O2'        19.8580   -1.0730   17.7680 O.3       1 FAD         0.0000 
     44 C3'        21.9860    0.0460   17.9030 C.3       1 FAD         0.0000 
     45 O3'        23.1720    0.2940   17.1450 O.3       1 FAD         0.0000 
     46 C4'        22.3780   -0.7320   19.1670 C.3       1 FAD         0.0000 
     47 O4'        21.2310   -1.0360   19.9620 O.3       1 FAD         0.0000 
     48 C5'        23.3750    0.1170   19.9180 C.3       1 FAD         0.0000 
     49 O5'        23.8840   -0.6520   21.1830 O.3       1 FAD         0.0000 
     50 P          24.5070    0.1030   22.3450 P.3       1 FAD         0.0000 
     51 O1P        24.9820   -0.9910   23.3090 O.2       1 FAD         0.0000 
     52 O2P        25.4370    1.0540   21.9500 O.3       1 FAD         0.0000 
     53 O3P        23.4730    0.8660   23.0320 O.3       1 FAD         0.0000 
     54 HOA2       20.1466    2.0306   22.7825 H         1 FAD         0.0000 
     55 H51A       22.9631    1.5210   25.9270 H         1 FAD         0.0000 
     56 H52A       21.7181    2.6659   25.3221 H         1 FAD         0.0000 
     57 H4B        21.1215    0.2571   27.1533 H         1 FAD         0.0000 
     58 H3B        19.0330    1.6103   25.7923 H         1 FAD         0.0000 
     59 HO3A       18.7161   -0.4115   26.8137 H         1 FAD         0.0000 
     60 H2B        19.4002    3.8970   26.9859 H         1 FAD         0.0000 
     61 HO2A       17.1481    3.2725   27.4286 H         1 FAD         0.0000 
     62 H1B        19.7898    2.2057   29.4992 H         1 FAD         0.0000 
     63 H8A        21.0350    5.2920   27.4870 H         1 FAD         0.0000 
     64 H61A       22.6212    7.9848   31.2244 H         1 FAD         0.0000 
     65 H62A       22.4402    7.7921   33.1112 H         1 FAD         0.0000 
     66 H2A        20.7640    3.5760   33.7660 H         1 FAD         0.0000 
     67 HN3        20.5432   -5.0668   12.5956 H         1 FAD         0.0000 
     68 H6         15.3300   -0.3580   13.3370 H         1 FAD         0.0000 
     69 HM71       13.7503    1.0953   14.0560 H         1 FAD         0.0000 
     70 HM72       14.3431    2.6721   14.6799 H         1 FAD         0.0000 
     71 HM73       13.8360    1.3857   15.8266 H         1 FAD         0.0000 
     72 HM81       15.2979    3.0369   16.5527 H         1 FAD         0.0000 
     73 HM82       17.0190    3.5502   16.5193 H         1 FAD         0.0000 
     74 HM83       16.4427    2.4221   17.7929 H         1 FAD         0.0000 
     75 H9         18.6390    1.2910   16.7230 H         1 FAD         0.0000 
     76 H1'1       21.5903    0.2076   15.2038 H         1 FAD         0.0000 
     77 H1'2       20.3307    1.0469   16.1710 H         1 FAD         0.0000 
     78 H2'        21.4878   -1.7791   16.8058 H         1 FAD         0.0000 
     79 HO2'       19.0616   -1.6741   17.3048 H         1 FAD         0.0000 
     80 H3'        21.5298    1.0156   18.1516 H         1 FAD         0.0000 
     81 HO3'       23.1120    0.8433   16.1939 H         1 FAD         0.0000 
     82 H4'        22.7871   -1.7307   18.9541 H         1 FAD         0.0000 
     83 HO4'       20.4189   -1.6490   19.5440 H         1 FAD         0.0000 
     84 H5'1       24.2294    0.3444   19.2636 H         1 FAD         0.0000 
     85 H5'2       22.8943    1.0550   20.2327 H         1 FAD         0.0000 
     86 HOP2       26.3384    0.7464   21.3998 H         1 FAD         0.0000 
     87 H87        21.7570    5.7209   34.0225 H         1 FAD         0.0000 
@<TRIPOS>BOND
     1    1    2 2    
     2    1    3 1    
     3    1    4 1    
     4    1   53 1    
     5    3   54 1    
     6    4    5 1    
     7    5    6 1    
     8    5   55 1    
     9    5   56 1    
    10    6    7 1    
    11    6    8 1    
    12    6   57 1    
    13    7   12 1    
    14    8    9 1    
    15    8   10 1    
    16    8   58 1    
    17    9   59 1    
    18   10   11 1    
    19   10   12 1    
    20   10   60 1    
    21   11   61 1    
    22   12   13 1    
    23   12   62 1    
    24   13   14 ar   
    25   13   22 ar   
    26   14   15 ar   
    27   14   63 1    
    28   15   16 ar   
    29   16   17 ar   
    30   16   22 ar   
    31   17   18 1    
    32   17   19 ar   
    33   18   64 1    
    34   18   65 1    
    35   19   20 ar   
    36   19   87 1    
    37   20   21 ar   
    38   20   66 1    
    39   21   22 ar   
    40   23   24 ar   
    41   23   40 ar   
    42   24   25 2    
    43   24   26 ar   
    44   26   27 ar   
    45   26   67 1    
    46   27   28 2    
    47   27   29 ar   
    48   29   30 ar   
    49   29   40 ar   
    50   30   31 ar   
    51   31   32 ar   
    52   31   38 ar   
    53   32   33 ar   
    54   32   68 1    
    55   33   34 1    
    56   33   35 ar   
    57   34   69 1    
    58   34   70 1    
    59   34   71 1    
    60   35   36 1    
    61   35   37 ar   
    62   36   72 1    
    63   36   73 1    
    64   36   74 1    
    65   37   38 ar   
    66   37   75 1    
    67   38   39 ar   
    68   39   40 ar   
    69   39   41 1    
    70   41   42 1    
    71   41   76 1    
    72   41   77 1    
    73   42   43 1    
    74   42   44 1    
    75   42   78 1    
    76   43   79 1    
    77   44   45 1    
    78   44   46 1    
    79   44   80 1    
    80   45   81 1    
    81   46   47 1    
    82   46   48 1    
    83   46   82 1    
    84   47   83 1    
    85   48   49 1    
    86   48   84 1    
    87   48   85 1    
    88   49   50 1    
    89   50   51 2    
    90   50   52 1    
    91   50   53 1    
    92   52   86 1    
@<TRIPOS>SUBSTRUCTURE
     1 FAD         1 GROUP             0       ****    0 ROOT    
@<TRIPOS>MOLECULE
FAD
87   92    1
SMALL
USER_CHARGES


@<TRIPOS>ATOM
      1 PA         21.8380    0.8050   23.1700 P.3       1 FAD         0.0000 
      2 O1A        21.3030   -0.5190   22.7220 O.2       1 FAD         0.0000 
      3 O2A        21.2420    1.9380   22.7450 O.3       1 FAD         0.0000 
      4 O5B        21.5190    0.6820   24.6440 O.3       1 FAD         0.0000 
      5 C5B        21.8970    1.6430   25.6850 C.3       1 FAD         0.0000 
      6 C4B        20.9970    1.3300   26.9450 C.3       1 FAD         0.0000 
      7 O4B        21.4600    2.2240   28.0530 O.3       1 FAD         0.0000 
      8 C3B        19.4600    1.6220   26.8060 C.3       1 FAD         0.0000 
      9 O3B        18.6710    0.5790   27.2900 O.3       1 FAD         0.0000 
     10 C2B        19.2980    2.9730   27.5740 C.3       1 FAD         0.0000 
     11 O2B        18.0040    3.1220   28.1030 O.3       1 FAD         0.0000 
     12 C1B        20.2760    2.7830   28.6990 C.3       1 FAD         0.0000 
     13 N9A        20.8010    4.0200   29.2670 N.pl3     1 FAD         0.0000 
     14 C8A        21.1540    5.1530   28.5750 C.ar      1 FAD         0.0000 
     15 N7A        21.6680    6.0970   29.3600 N.pl3     1 FAD         0.0000 
     16 C5A        21.5630    5.5850   30.6310 C.ar      1 FAD         0.0000 
     17 C6A        21.9270    6.1470   31.9320 C.ar      1 FAD         0.0000 
     18 N6A        22.3520    7.3730   32.0980 N.pl3     1 FAD         0.0000 
     19 N1A        21.5850    5.3620   32.9970 N.ar      1 FAD         0.0000 
     20 C2A        21.0280    4.1270   32.8470 C.ar      1 FAD         0.0000 
     21 N3A        20.7580    3.4920   31.6950 N.ar      1 FAD         0.0000 
     22 C4A        21.0940    4.2440   30.6070 C.ar      1 FAD         0.0000 
     23 N1         21.1130   -2.2310   14.3340 N.2       1 FAD         0.0000 
     24 C2         21.3700   -3.3170   13.6190 C.ar      1 FAD         0.0000 
     25 O2         22.4720   -3.7950   13.5580 O.2       1 FAD         0.0000 
     26 N3         20.3350   -4.0620   12.9920 N.pl3     1 FAD         0.0000 
     27 C4         19.0640   -3.5450   12.8700 C.ar      1 FAD         0.0000 
     28 O4         18.2010   -4.1990   12.3240 O.2       1 FAD         0.0000 
     29 C4X        18.8420   -2.2200   13.4310 C.ar      1 FAD         0.0000 
     30 N5         17.6210   -1.6430   13.3240 N.2       1 FAD         0.0000 
     31 C5X        17.4010   -0.5070   14.0540 C.ar      1 FAD         0.0000 
     32 C6         16.0920    0.0300   14.0340 C.ar      1 FAD         0.0000 
     33 C7         15.7290    1.0490   14.8790 C.ar      1 FAD         0.0000 
     34 C7M        14.3190    1.5870   14.8590 C.3       1 FAD         0.0000 
     35 C8         16.6660    1.5470   15.8520 C.ar      1 FAD         0.0000 
     36 C8M        16.3340    2.7180   16.7390 C.3       1 FAD         0.0000 
     37 C9         17.9420    0.9810   15.9280 C.ar      1 FAD         0.0000 
     38 C9A        18.3310    0.0200   14.9920 C.ar      1 FAD         0.0000 
     39 N10        19.6330   -0.5660   14.9940 N.pl3     1 FAD         0.0000 
     40 C10        19.8920   -1.6530   14.2710 C.ar      1 FAD         0.0000 
     41 C1'        20.6850    0.0690   15.8130 C.3       1 FAD         0.0000 
     42 C2'        21.0540   -0.7970   17.0450 C.3       1 FAD         0.0000 
     43 O2'        19.8580   -1.0730   17.7680 O.3       1 FAD         0.0000 
     44 C3'        21.9860    0.0460   17.9030 C.3       1 FAD         0.0000 
     45 O3'        23.1720    0.2940   17.1450 O.3       1 FAD         0.0000 
     46 C4'        22.3780   -0.7320   19.1670 C.3       1 FAD         0.0000 
     47 O4'        21.2310   -1.0360   19.9620 O.3       1 FAD         0.0000 
     48 C5'        23.3750    0.1170   19.9180 C.3       1 FAD         0.0000 
     49 O5'        23.8840   -0.6520   21.1830 O.3       1 FAD         0.0000 
     50 P          24.5070    0.1030   22.3450 P.3       1 FAD         0.0000 
     51 O1P        24.9820   -0.9910   23.3090 O.2       1 FAD         0.0000 
     52 O2P        25.4370    1.0540   21.9500 O.3       1 FAD         0.0000 
     53 O3P        23.4730    0.8660   23.0320 O.3       1 FAD         0.0000 
     54 HOA2       20.1466    2.0306   22.7825 H         1 FAD         0.0000 
     55 H51A       22.9631    1.5210   25.9270 H         1 FAD         0.0000 
     56 H52A       21.7181    2.6659   25.3221 H         1 FAD         0.0000 
     57 H4B        21.1215    0.2571   27.1533 H         1 FAD         0.0000 
     58 H3B        19.0330    1.6103   25.7923 H         1 FAD         0.0000 
     59 HO3A       18.7161   -0.4115   26.8137 H         1 FAD         0.0000 
     60 H2B        19.4002    3.8970   26.9859 H         1 FAD         0.0000 
     61 HO2A       17.1481    3.2725   27.4286 H         1 FAD         0.0000 
     62 H1B        19.7898    2.2057   29.4992 H         1 FAD         0.0000 
     63 H8A        21.0350    5.2920   27.4870 H         1 FAD         0.0000 
     64 H61A       22.6212    7.9848   31.2244 H         1 FAD         0.0000 
     65 H62A       22.4402    7.7921   33.1112 H         1 FAD         0.0000 
     66 H2A        20.7640    3.5760   33.7660 H         1 FAD         0.0000 
     67 HN3        20.5432   -5.0668   12.5956 H         1 FAD         0.0000 
     68 H6         15.3300   -0.3580   13.3370 H         1 FAD         0.0000 
     69 HM71       13.7503    1.0953   14.0560 H         1 FAD         0.0000 
     70 HM72       14.3431    2.6721   14.6799 H         1 FAD         0.0000 
     71 HM73       13.8360    1.3857   15.8266 H         1 FAD         0.0000 
     72 HM81       15.2979    3.0369   16.5527 H         1 FAD         0.0000 
     73 HM82       17.0190    3.5502   16.5193 H         1 FAD         0.0000 
     74 HM83       16.4427    2.4221   17.7929 H         1 FAD         0.0000 
     75 H9         18.6390    1.2910   16.7230 H         1 FAD         0.0000 
     76 H1'1       21.5903    0.2076   15.2038 H         1 FAD         0.0000 
     77 H1'2       20.3307    1.0469   16.1710 H         1 FAD         0.0000 
     78 H2'        21.4878   -1.7791   16.8058 H         1 FAD         0.0000 
     79 HO2'       19.0616   -1.6741   17.3048 H         1 FAD         0.0000 
     80 H3'        21.5298    1.0156   18.1516 H         1 FAD         0.0000 
     81 HO3'       23.1120    0.8433   16.1939 H         1 FAD         0.0000 
     82 H4'        22.7871   -1.7307   18.9541 H         1 FAD         0.0000 
     83 HO4'       20.4189   -1.6490   19.5440 H         1 FAD         0.0000 
     84 H5'1       24.2294    0.3444   19.2636 H         1 FAD         0.0000 
     85 H5'2       22.8943    1.0550   20.2327 H         1 FAD         0.0000 
     86 HOP2       26.3384    0.7464   21.3998 H         1 FAD         0.0000 
     87 H87        22.0513    7.0295   28.9202 H         1 FAD         0.0000 
@<TRIPOS>BOND
     1    1    2 2    
     2    1    3 1    
     3    1    4 1    
     4    1   53 1    
     5    3   54 1    
     6    4    5 1    
     7    5    6 1    
     8    5   55 1    
     9    5   56 1    
    10    6    7 1    
    11    6    8 1    
    12    6   57 1    
    13    7   12 1    
    14    8    9 1    
    15    8   10 1    
    16    8   58 1    
    17    9   59 1    
    18   10   11 1    
    19   10   12 1    
    20   10   60 1    
    21   11   61 1    
    22   12   13 1    
    23   12   62 1    
    24   13   14 ar   
    25   13   22 ar   
    26   14   15 ar   
    27   14   63 1    
    28   15   16 ar   
    29   15   87 1    
    30   16   17 ar   
    31   16   22 ar   
    32   17   18 1    
    33   17   19 ar   
    34   18   64 1    
    35   18   65 1    
    36   19   20 ar   
    37   20   21 ar   
    38   20   66 1    
    39   21   22 ar   
    40   23   24 ar   
    41   23   40 ar   
    42   24   25 2    
    43   24   26 ar   
    44   26   27 ar   
    45   26   67 1    
    46   27   28 2    
    47   27   29 ar   
    48   29   30 ar   
    49   29   40 ar   
    50   30   31 ar   
    51   31   32 ar   
    52   31   38 ar   
    53   32   33 ar   
    54   32   68 1    
    55   33   34 1    
    56   33   35 ar   
    57   34   69 1    
    58   34   70 1    
    59   34   71 1    
    60   35   36 1    
    61   35   37 ar   
    62   36   72 1    
    63   36   73 1    
    64   36   74 1    
    65   37   38 ar   
    66   37   75 1    
    67   38   39 ar   
    68   39   40 ar   
    69   39   41 1    
    70   41   42 1    
    71   41   76 1    
    72   41   77 1    
    73   42   43 1    
    74   42   44 1    
    75   42   78 1    
    76   43   79 1    
    77   44   45 1    
    78   44   46 1    
    79   44   80 1    
    80   45   81 1    
    81   46   47 1    
    82   46   48 1    
    83   46   82 1    
    84   47   83 1    
    85   48   49 1    
    86   48   84 1    
    87   48   85 1    
    88   49   50 1    
    89   50   51 2    
    90   50   52 1    
    91   50   53 1    
    92   52   86 1    
@<TRIPOS>SUBSTRUCTURE
     1 FAD         1 GROUP             0       ****    0 ROOT    
@<TRIPOS>MOLECULE
FAD
84   89    1
SMALL
USER_CHARGES


@<TRIPOS>ATOM
      1 PA         21.8380    0.8050   23.1700 P.3       1 FAD         0.0000 
      2 O1A        21.3030   -0.5190   22.7220 O.co2     1 FAD         0.0000 
      3 O2A        21.2420    1.9380   22.7450 O.co2     1 FAD         0.0000 
      4 O5B        21.5190    0.6820   24.6440 O.3       1 FAD         0.0000 
      5 C5B        21.8970    1.6430   25.6850 C.3       1 FAD         0.0000 
      6 C4B        20.9970    1.3300   26.9450 C.3       1 FAD         0.0000 
      7 O4B        21.4600    2.2240   28.0530 O.3       1 FAD         0.0000 
      8 C3B        19.4600    1.6220   26.8060 C.3       1 FAD         0.0000 
      9 O3B        18.6710    0.5790   27.2900 O.3       1 FAD         0.0000 
     10 C2B        19.2980    2.9730   27.5740 C.3       1 FAD         0.0000 
     11 O2B        18.0040    3.1220   28.1030 O.3       1 FAD         0.0000 
     12 C1B        20.2760    2.7830   28.6990 C.3       1 FAD         0.0000 
     13 N9A        20.8010    4.0200   29.2670 N.pl3     1 FAD         0.0000 
     14 C8A        21.1540    5.1530   28.5750 C.ar      1 FAD         0.0000 
     15 N7A        21.6680    6.0970   29.3600 N.2       1 FAD         0.0000 
     16 C5A        21.5630    5.5850   30.6310 C.ar      1 FAD         0.0000 
     17 C6A        21.9270    6.1470   31.9320 C.ar      1 FAD         0.0000 
     18 N6A        22.3520    7.3730   32.0980 N.2       1 FAD         0.0000 
     19 N1A        21.5850    5.3620   32.9970 N.pl3     1 FAD         0.0000 
     20 C2A        21.0280    4.1270   32.8470 C.ar      1 FAD         0.0000 
     21 N3A        20.7580    3.4920   31.6950 N.2       1 FAD         0.0000 
     22 C4A        21.0940    4.2440   30.6070 C.ar      1 FAD         0.0000 
     23 N1         21.1130   -2.2310   14.3340 N.2       1 FAD         0.0000 
     24 C2         21.3700   -3.3170   13.6190 C.ar      1 FAD         0.0000 
     25 O2         22.4720   -3.7950   13.5580 O.2       1 FAD         0.0000 
     26 N3         20.3350   -4.0620   12.9920 N.pl3     1 FAD         0.0000 
     27 C4         19.0640   -3.5450   12.8700 C.ar      1 FAD         0.0000 
     28 O4         18.2010   -4.1990   12.3240 O.2       1 FAD         0.0000 
     29 C4X        18.8420   -2.2200   13.4310 C.ar      1 FAD         0.0000 
     30 N5         17.6210   -1.6430   13.3240 N.2       1 FAD         0.0000 
     31 C5X        17.4010   -0.5070   14.0540 C.ar      1 FAD         0.0000 
     32 C6         16.0920    0.0300   14.0340 C.ar      1 FAD         0.0000 
     33 C7         15.7290    1.0490   14.8790 C.ar      1 FAD         0.0000 
     34 C7M        14.3190    1.5870   14.8590 C.3       1 FAD         0.0000 
     35 C8         16.6660    1.5470   15.8520 C.ar      1 FAD         0.0000 
     36 C8M        16.3340    2.7180   16.7390 C.3       1 FAD         0.0000 
     37 C9         17.9420    0.9810   15.9280 C.ar      1 FAD         0.0000 
     38 C9A        18.3310    0.0200   14.9920 C.ar      1 FAD         0.0000 
     39 N10        19.6330   -0.5660   14.9940 N.pl3     1 FAD         0.0000 
     40 C10        19.8920   -1.6530   14.2710 C.ar      1 FAD         0.0000 
     41 C1'        20.6850    0.0690   15.8130 C.3       1 FAD         0.0000 
     42 C2'        21.0540   -0.7970   17.0450 C.3       1 FAD         0.0000 
     43 O2'        19.8580   -1.0730   17.7680 O.3       1 FAD         0.0000 
     44 C3'        21.9860    0.0460   17.9030 C.3       1 FAD         0.0000 
     45 O3'        23.1720    0.2940   17.1450 O.3       1 FAD         0.0000 
     46 C4'        22.3780   -0.7320   19.1670 C.3       1 FAD         0.0000 
     47 O4'        21.2310   -1.0360   19.9620 O.3       1 FAD         0.0000 
     48 C5'        23.3750    0.1170   19.9180 C.3       1 FAD         0.0000 
     49 O5'        23.8840   -0.6520   21.1830 O.3       1 FAD         0.0000 
     50 P          24.5070    0.1030   22.3450 P.3       1 FAD         0.0000 
     51 O1P        24.9820   -0.9910   23.3090 O.co2     1 FAD         0.0000 
     52 O2P        25.4370    1.0540   21.9500 O.co2     1 FAD         0.0000 
     53 O3P        23.4730    0.8660   23.0320 O.3       1 FAD         0.0000 
     54 H51A       22.9631    1.5210   25.9270 H         1 FAD         0.0000 
     55 H52A       21.7181    2.6659   25.3221 H         1 FAD         0.0000 
     56 H4B        21.1215    0.2571   27.1533 H         1 FAD         0.0000 
     57 H3B        19.0330    1.6103   25.7923 H         1 FAD         0.0000 
     58 HO3A       18.7161   -0.4115   26.8137 H         1 FAD         0.0000 
     59 H2B        19.4002    3.8970   26.9859 H         1 FAD         0.0000 
     60 HO2A       17.1481    3.2725   27.4286 H         1 FAD         0.0000 
     61 H1B        19.7898    2.2057   29.4992 H         1 FAD         0.0000 
     62 H8A        21.0350    5.2920   27.4870 H         1 FAD         0.0000 
     63 H62A       21.6530    7.9920   31.6860 H         1 FAD         0.0000 
     64 H2A        20.7640    3.5760   33.7660 H         1 FAD         0.0000 
     65 HN3        20.5432   -5.0668   12.5956 H         1 FAD         0.0000 
     66 H6         15.3300   -0.3580   13.3370 H         1 FAD         0.0000 
     67 HM71       13.7503    1.0953   14.0560 H         1 FAD         0.0000 
     68 HM72       14.3431    2.6721   14.6799 H         1 FAD         0.0000 
     69 HM73       13.8360    1.3857   15.8266 H         1 FAD         0.0000 
     70 HM81       15.2979    3.0369   16.5527 H         1 FAD         0.0000 
     71 HM82       17.0190    3.5502   16.5193 H         1 FAD         0.0000 
     72 HM83       16.4427    2.4221   17.7929 H         1 FAD         0.0000 
     73 H9         18.6390    1.2910   16.7230 H         1 FAD         0.0000 
     74 H1'1       21.5903    0.2076   15.2038 H         1 FAD         0.0000 
     75 H1'2       20.3307    1.0469   16.1710 H         1 FAD         0.0000 
     76 H2'        21.4878   -1.7791   16.8058 H         1 FAD         0.0000 
     77 HO2'       19.0616   -1.6741   17.3048 H         1 FAD         0.0000 
     78 H3'        21.5298    1.0156   18.1516 H         1 FAD         0.0000 
     79 HO3'       23.1120    0.8433   16.1939 H         1 FAD         0.0000 
     80 H4'        22.7871   -1.7307   18.9541 H         1 FAD         0.0000 
     81 HO4'       20.4189   -1.6490   19.5440 H         1 FAD         0.0000 
     82 H5'1       24.2294    0.3444   19.2636 H         1 FAD         0.0000 
     83 H5'2       22.8943    1.0550   20.2327 H         1 FAD         0.0000 
     84 H84        21.7570    5.7209   34.0225 H         1 FAD         0.0000 
@<TRIPOS>BOND
     1    1    2 2    
     2    1    3 1    
     3    1    4 1    
     4    1   53 1    
     5    4    5 1    
     6    5    6 1    
     7    5   54 1    
     8    5   55 1    
     9    6    7 1    
    10    6    8 1    
    11    6   56 1    
    12    7   12 1    
    13    8    9 1    
    14    8   10 1    
    15    8   57 1    
    16    9   58 1    
    17   10   11 1    
    18   10   12 1    
    19   10   59 1    
    20   11   60 1    
    21   12   13 1    
    22   12   61 1    
    23   13   14 ar   
    24   13   22 ar   
    25   14   15 ar   
    26   14   62 1    
    27   15   16 ar   
    28   16   17 ar   
    29   16   22 ar   
    30   17   18 2    
    31   17   19 ar   
    32   18   63 1    
    33   19   20 ar   
    34   19   84 1    
    35   20   21 ar   
    36   20   64 1    
    37   21   22 ar   
    38   23   24 ar   
    39   23   40 ar   
    40   24   25 2    
    41   24   26 ar   
    42   26   27 ar   
    43   26   65 1    
    44   27   28 2    
    45   27   29 ar   
    46   29   30 ar   
    47   29   40 ar   
    48   30   31 ar   
    49   31   32 ar   
    50   31   38 ar   
    51   32   33 ar   
    52   32   66 1    
    53   33   34 1    
    54   33   35 ar   
    55   34   67 1    
    56   34   68 1    
    57   34   69 1    
    58   35   36 1    
    59   35   37 ar   
    60   36   70 1    
    61   36   71 1    
    62   36   72 1    
    63   37   38 ar   
    64   37   73 1    
    65   38   39 ar   
    66   39   40 ar   
    67   39   41 1    
    68   41   42 1    
    69   41   74 1    
    70   41   75 1    
    71   42   43 1    
    72   42   44 1    
    73   42   76 1    
    74   43   77 1    
    75   44   45 1    
    76   44   46 1    
    77   44   78 1    
    78   45   79 1    
    79   46   47 1    
    80   46   48 1    
    81   46   80 1    
    82   47   81 1    
    83   48   49 1    
    84   48   82 1    
    85   48   83 1    
    86   49   50 1    
    87   50   51 2    
    88   50   52 1    
    89   50   53 1    
@<TRIPOS>SUBSTRUCTURE
     1 FAD         1 GROUP             0       ****    0 ROOT    
@<TRIPOS>MOLECULE
FAD
84   89    1
SMALL
USER_CHARGES


@<TRIPOS>ATOM
      1 PA         21.8380    0.8050   23.1700 P.3       1 FAD         0.0000 
      2 O1A        21.3030   -0.5190   22.7220 O.co2     1 FAD         0.0000 
      3 O2A        21.2420    1.9380   22.7450 O.co2     1 FAD         0.0000 
      4 O5B        21.5190    0.6820   24.6440 O.3       1 FAD         0.0000 
      5 C5B        21.8970    1.6430   25.6850 C.3       1 FAD         0.0000 
      6 C4B        20.9970    1.3300   26.9450 C.3       1 FAD         0.0000 
      7 O4B        21.4600    2.2240   28.0530 O.3       1 FAD         0.0000 
      8 C3B        19.4600    1.6220   26.8060 C.3       1 FAD         0.0000 
      9 O3B        18.6710    0.5790   27.2900 O.3       1 FAD         0.0000 
     10 C2B        19.2980    2.9730   27.5740 C.3       1 FAD         0.0000 
     11 O2B        18.0040    3.1220   28.1030 O.3       1 FAD         0.0000 
     12 C1B        20.2760    2.7830   28.6990 C.3       1 FAD         0.0000 
     13 N9A        20.8010    4.0200   29.2670 N.pl3     1 FAD         0.0000 
     14 C8A        21.1540    5.1530   28.5750 C.ar      1 FAD         0.0000 
     15 N7A        21.6680    6.0970   29.3600 N.2       1 FAD         0.0000 
     16 C5A        21.5630    5.5850   30.6310 C.ar      1 FAD         0.0000 
     17 C6A        21.9270    6.1470   31.9320 C.ar      1 FAD         0.0000 
     18 N6A        22.3520    7.3730   32.0980 N.2       1 FAD         0.0000 
     19 N1A        21.5850    5.3620   32.9970 N.pl3     1 FAD         0.0000 
     20 C2A        21.0280    4.1270   32.8470 C.ar      1 FAD         0.0000 
     21 N3A        20.7580    3.4920   31.6950 N.2       1 FAD         0.0000 
     22 C4A        21.0940    4.2440   30.6070 C.ar      1 FAD         0.0000 
     23 N1         21.1130   -2.2310   14.3340 N.2       1 FAD         0.0000 
     24 C2         21.3700   -3.3170   13.6190 C.ar      1 FAD         0.0000 
     25 O2         22.4720   -3.7950   13.5580 O.2       1 FAD         0.0000 
     26 N3         20.3350   -4.0620   12.9920 N.pl3     1 FAD         0.0000 
     27 C4         19.0640   -3.5450   12.8700 C.ar      1 FAD         0.0000 
     28 O4         18.2010   -4.1990   12.3240 O.2       1 FAD         0.0000 
     29 C4X        18.8420   -2.2200   13.4310 C.ar      1 FAD         0.0000 
     30 N5         17.6210   -1.6430   13.3240 N.2       1 FAD         0.0000 
     31 C5X        17.4010   -0.5070   14.0540 C.ar      1 FAD         0.0000 
     32 C6         16.0920    0.0300   14.0340 C.ar      1 FAD         0.0000 
     33 C7         15.7290    1.0490   14.8790 C.ar      1 FAD         0.0000 
     34 C7M        14.3190    1.5870   14.8590 C.3       1 FAD         0.0000 
     35 C8         16.6660    1.5470   15.8520 C.ar      1 FAD         0.0000 
     36 C8M        16.3340    2.7180   16.7390 C.3       1 FAD         0.0000 
     37 C9         17.9420    0.9810   15.9280 C.ar      1 FAD         0.0000 
     38 C9A        18.3310    0.0200   14.9920 C.ar      1 FAD         0.0000 
     39 N10        19.6330   -0.5660   14.9940 N.pl3     1 FAD         0.0000 
     40 C10        19.8920   -1.6530   14.2710 C.ar      1 FAD         0.0000 
     41 C1'        20.6850    0.0690   15.8130 C.3       1 FAD         0.0000 
     42 C2'        21.0540   -0.7970   17.0450 C.3       1 FAD         0.0000 
     43 O2'        19.8580   -1.0730   17.7680 O.3       1 FAD         0.0000 
     44 C3'        21.9860    0.0460   17.9030 C.3       1 FAD         0.0000 
     45 O3'        23.1720    0.2940   17.1450 O.3       1 FAD         0.0000 
     46 C4'        22.3780   -0.7320   19.1670 C.3       1 FAD         0.0000 
     47 O4'        21.2310   -1.0360   19.9620 O.3       1 FAD         0.0000 
     48 C5'        23.3750    0.1170   19.9180 C.3       1 FAD         0.0000 
     49 O5'        23.8840   -0.6520   21.1830 O.3       1 FAD         0.0000 
     50 P          24.5070    0.1030   22.3450 P.3       1 FAD         0.0000 
     51 O1P        24.9820   -0.9910   23.3090 O.co2     1 FAD         0.0000 
     52 O2P        25.4370    1.0540   21.9500 O.co2     1 FAD         0.0000 
     53 O3P        23.4730    0.8660   23.0320 O.3       1 FAD         0.0000 
     54 H51A       22.9631    1.5210   25.9270 H         1 FAD         0.0000 
     55 H52A       21.7181    2.6659   25.3221 H         1 FAD         0.0000 
     56 H4B        21.1215    0.2571   27.1533 H         1 FAD         0.0000 
     57 H3B        19.0330    1.6103   25.7923 H         1 FAD         0.0000 
     58 HO3A       18.7161   -0.4115   26.8137 H         1 FAD         0.0000 
     59 H2B        19.4002    3.8970   26.9859 H         1 FAD         0.0000 
     60 HO2A       17.1481    3.2725   27.4286 H         1 FAD         0.0000 
     61 H1B        19.7898    2.2057   29.4992 H         1 FAD         0.0000 
     62 H8A        21.0350    5.2920   27.4870 H         1 FAD         0.0000 
     63 H61A       22.6050    7.7640   33.0040 H         1 FAD         0.0000 
     64 H2A        20.7640    3.5760   33.7660 H         1 FAD         0.0000 
     65 HN3        20.5432   -5.0668   12.5956 H         1 FAD         0.0000 
     66 H6         15.3300   -0.3580   13.3370 H         1 FAD         0.0000 
     67 HM71       13.7503    1.0953   14.0560 H         1 FAD         0.0000 
     68 HM72       14.3431    2.6721   14.6799 H         1 FAD         0.0000 
     69 HM73       13.8360    1.3857   15.8266 H         1 FAD         0.0000 
     70 HM81       15.2979    3.0369   16.5527 H         1 FAD         0.0000 
     71 HM82       17.0190    3.5502   16.5193 H         1 FAD         0.0000 
     72 HM83       16.4427    2.4221   17.7929 H         1 FAD         0.0000 
     73 H9         18.6390    1.2910   16.7230 H         1 FAD         0.0000 
     74 H1'1       21.5903    0.2076   15.2038 H         1 FAD         0.0000 
     75 H1'2       20.3307    1.0469   16.1710 H         1 FAD         0.0000 
     76 H2'        21.4878   -1.7791   16.8058 H         1 FAD         0.0000 
     77 HO2'       19.0616   -1.6741   17.3048 H         1 FAD         0.0000 
     78 H3'        21.5298    1.0156   18.1516 H         1 FAD         0.0000 
     79 HO3'       23.1120    0.8433   16.1939 H         1 FAD         0.0000 
     80 H4'        22.7871   -1.7307   18.9541 H         1 FAD         0.0000 
     81 HO4'       20.4189   -1.6490   19.5440 H         1 FAD         0.0000 
     82 H5'1       24.2294    0.3444   19.2636 H         1 FAD         0.0000 
     83 H5'2       22.8943    1.0550   20.2327 H         1 FAD         0.0000 
     84 H84        21.7570    5.7209   34.0225 H         1 FAD         0.0000 
@<TRIPOS>BOND
     1    1    2 2    
     2    1    3 1    
     3    1    4 1    
     4    1   53 1    
     5    4    5 1    
     6    5    6 1    
     7    5   54 1    
     8    5   55 1    
     9    6    7 1    
    10    6    8 1    
    11    6   56 1    
    12    7   12 1    
    13    8    9 1    
    14    8   10 1    
    15    8   57 1    
    16    9   58 1    
    17   10   11 1    
    18   10   12 1    
    19   10   59 1    
    20   11   60 1    
    21   12   13 1    
    22   12   61 1    
    23   13   14 ar   
    24   13   22 ar   
    25   14   15 ar   
    26   14   62 1    
    27   15   16 ar   
    28   16   17 ar   
    29   16   22 ar   
    30   17   18 2    
    31   17   19 ar   
    32   18   63 1    
    33   19   20 ar   
    34   19   84 1    
    35   20   21 ar   
    36   20   64 1    
    37   21   22 ar   
    38   23   24 ar   
    39   23   40 ar   
    40   24   25 2    
    41   24   26 ar   
    42   26   27 ar   
    43   26   65 1    
    44   27   28 2    
    45   27   29 ar   
    46   29   30 ar   
    47   29   40 ar   
    48   30   31 ar   
    49   31   32 ar   
    50   31   38 ar   
    51   32   33 ar   
    52   32   66 1    
    53   33   34 1    
    54   33   35 ar   
    55   34   67 1    
    56   34   68 1    
    57   34   69 1    
    58   35   36 1    
    59   35   37 ar   
    60   36   70 1    
    61   36   71 1    
    62   36   72 1    
    63   37   38 ar   
    64   37   73 1    
    65   38   39 ar   
    66   39   40 ar   
    67   39   41 1    
    68   41   42 1    
    69   41   74 1    
    70   41   75 1    
    71   42   43 1    
    72   42   44 1    
    73   42   76 1    
    74   43   77 1    
    75   44   45 1    
    76   44   46 1    
    77   44   78 1    
    78   45   79 1    
    79   46   47 1    
    80   46   48 1    
    81   46   80 1    
    82   47   81 1    
    83   48   49 1    
    84   48   82 1    
    85   48   83 1    
    86   49   50 1    
    87   50   51 2    
    88   50   52 1    
    89   50   53 1    
@<TRIPOS>SUBSTRUCTURE
     1 FAD         1 GROUP             0       ****    0 ROOT    
