PLP
  CCTOOLS-0326171104

 26 26  0  0  0  0  0  0  0  0999 V2000
  -14.3330   14.0520   -8.3860 N   0  0  0  0  0
  -13.0670   14.1640   -7.9320 C   0  0  0  0  0
  -12.5230   15.5540   -7.6740 C   0  0  0  0  0
  -12.3130   12.9900   -7.7180 C   0  0  0  0  0
  -11.0530   13.1590   -7.2400 O   0  0  0  0  0
  -12.8690   11.7450   -7.9410 C   0  0  0  0  0
  -12.0000   10.5750   -8.1130 C   0  0  0  0  0
  -10.8480   10.7480   -8.7890 O   0  0  0  0  0
  -14.2050   11.7230   -8.4280 C   0  0  0  0  0
  -14.9090   12.8520   -8.6360 C   0  0  0  0  0
  -14.8540   10.3400   -8.6840 C   0  0  0  0  0
  -14.9550    9.6800   -7.4040 O   0  0  0  0  0
  -15.9170    8.4130   -7.1770 P   0  0  0  0  0
  -15.4670    7.4080   -8.2390 O   0  0  0  0  0
  -15.6850    7.9810   -5.7620 O   0  0  0  0  0
  -17.2790    8.8940   -7.4180 O   0  0  0  0  0
  -11.4770   15.6460   -7.2980 H   0  0  0  0  0
  -12.6340   16.1670   -8.5980 H   0  0  0  0  0
  -13.2090   16.0910   -6.9780 H   0  0  0  0  0
  -10.5450   12.3680   -7.0960 H   0  0  0  0  0
  -12.2130    9.5610   -7.7320 H   0  0  0  0  0
  -15.9460   12.7940   -9.0070 H   0  0  0  0  0
  -15.8280   10.4050   -9.2210 H   0  0  0  0  0
  -14.3110    9.7350   -9.4470 H   0  0  0  0  0
  -16.2530    7.2320   -5.6270 H   0  0  0  0  0
  -17.8470    8.1450   -7.2830 H   0  0  0  0  0
  1  2  2  0  0  0
  1 10  1  0  0  0
  2  3  1  0  0  0
  2  4  1  0  0  0
  3 17  1  0  0  0
  3 18  1  0  0  0
  3 19  1  0  0  0
  4  5  1  0  0  0
  4  6  2  0  0  0
  5 20  1  0  0  0
  6  7  1  0  0  0
  6  9  1  0  0  0
  7  8  2  0  0  0
  7 21  1  0  0  0
  9 10  2  0  0  0
  9 11  1  0  0  0
 10 22  1  0  0  0
 11 12  1  0  0  0
 11 23  1  0  0  0
 11 24  1  0  0  0
 12 13  1  0  0  0
 13 14  2  0  0  0
 13 15  1  0  0  0
 13 16  1  0  0  0
 15 25  1  0  0  0
 16 26  1  0  0  0
M  END
$$$$
