@<TRIPOS>MOLECULE
PLP
24   24    1
SMALL
USER_CHARGES


@<TRIPOS>ATOM
      1 N1        -14.3330   14.0520   -8.3860 N.pl3     1 PLP         0.0000 
      2 C2        -13.0670   14.1640   -7.9320 C.ar      1 PLP         0.0000 
      3 C2A       -12.5230   15.5540   -7.6740 C.3       1 PLP         0.0000 
      4 C3        -12.3130   12.9900   -7.7180 C.ar      1 PLP         0.0000 
      5 O3        -11.0530   13.1590   -7.2400 O.co2     1 PLP         0.0000 
      6 C4        -12.8690   11.7450   -7.9410 C.ar      1 PLP         0.0000 
      7 C4A       -12.0000   10.5750   -8.1130 C.2       1 PLP         0.0000 
      8 O4A       -10.8480   10.7480   -8.7890 O.2       1 PLP         0.0000 
      9 C5        -14.2050   11.7230   -8.4280 C.ar      1 PLP         0.0000 
     10 C6        -14.9090   12.8520   -8.6360 C.ar      1 PLP         0.0000 
     11 C5A       -14.8540   10.3400   -8.6840 C.3       1 PLP         0.0000 
     12 O4P       -14.9550    9.6800   -7.4040 O.3       1 PLP         0.0000 
     13 P         -15.9170    8.4130   -7.1770 P.3       1 PLP         0.0000 
     14 O1P       -15.4670    7.4080   -8.2390 O.co2     1 PLP         0.0000 
     15 O2P       -15.6850    7.9810   -5.7620 O.co2     1 PLP         0.0000 
     16 O3P       -17.2790    8.8940   -7.4180 O.co2     1 PLP         0.0000 
     17 H2A1      -13.2947   16.3002   -7.9141 H         1 PLP         0.0000 
     18 H2A2      -11.6387   15.7247   -8.3056 H         1 PLP         0.0000 
     19 H2A3      -12.2405   15.6464   -6.6149 H         1 PLP         0.0000 
     20 H4A       -12.2596    9.5836   -7.7132 H         1 PLP         0.0000 
     21 H6        -15.9460   12.7940   -9.0070 H         1 PLP         0.0000 
     22 H5A1      -15.8498   10.4792   -9.1300 H         1 PLP         0.0000 
     23 H5A2      -14.2218    9.7600   -9.3724 H         1 PLP         0.0000 
     24 H24       -14.9348   14.9551   -8.5657 H         1 PLP         0.0000 
@<TRIPOS>BOND
     1    1    2 ar   
     2    1   10 ar   
     3    1   24 1    
     4    2    3 1    
     5    2    4 ar   
     6    3   17 1    
     7    3   18 1    
     8    3   19 1    
     9    4    5 1    
    10    4    6 ar   
    11    6    7 1    
    12    6    9 ar   
    13    7    8 2    
    14    7   20 1    
    15    9   10 ar   
    16    9   11 1    
    17   10   21 1    
    18   11   12 1    
    19   11   22 1    
    20   11   23 1    
    21   12   13 1    
    22   13   14 2    
    23   13   15 1    
    24   13   16 1    
@<TRIPOS>SUBSTRUCTURE
     1 PLP         1 GROUP             0       ****    0 ROOT    
@<TRIPOS>MOLECULE
PLP
25   25    1
SMALL
USER_CHARGES


@<TRIPOS>ATOM
      1 N1        -14.3330   14.0520   -8.3860 N.pl3     1 PLP         0.0000 
      2 C2        -13.0670   14.1640   -7.9320 C.ar      1 PLP         0.0000 
      3 C2A       -12.5230   15.5540   -7.6740 C.3       1 PLP         0.0000 
      4 C3        -12.3130   12.9900   -7.7180 C.ar      1 PLP         0.0000 
      5 O3        -11.0530   13.1590   -7.2400 O.co2     1 PLP         0.0000 
      6 C4        -12.8690   11.7450   -7.9410 C.ar      1 PLP         0.0000 
      7 C4A       -12.0000   10.5750   -8.1130 C.2       1 PLP         0.0000 
      8 O4A       -10.8480   10.7480   -8.7890 O.2       1 PLP         0.0000 
      9 C5        -14.2050   11.7230   -8.4280 C.ar      1 PLP         0.0000 
     10 C6        -14.9090   12.8520   -8.6360 C.ar      1 PLP         0.0000 
     11 C5A       -14.8540   10.3400   -8.6840 C.3       1 PLP         0.0000 
     12 O4P       -14.9550    9.6800   -7.4040 O.3       1 PLP         0.0000 
     13 P         -15.9170    8.4130   -7.1770 P.3       1 PLP         0.0000 
     14 O1P       -15.4670    7.4080   -8.2390 O.co2     1 PLP         0.0000 
     15 O2P       -15.6850    7.9810   -5.7620 O.co2     1 PLP         0.0000 
     16 O3P       -17.2790    8.8940   -7.4180 O.3       1 PLP         0.0000 
     17 H2A1      -13.2947   16.3002   -7.9141 H         1 PLP         0.0000 
     18 H2A2      -11.6387   15.7247   -8.3056 H         1 PLP         0.0000 
     19 H2A3      -12.2405   15.6464   -6.6149 H         1 PLP         0.0000 
     20 H4A       -12.2596    9.5836   -7.7132 H         1 PLP         0.0000 
     21 H6        -15.9460   12.7940   -9.0070 H         1 PLP         0.0000 
     22 H5A1      -15.8498   10.4792   -9.1300 H         1 PLP         0.0000 
     23 H5A2      -14.2218    9.7600   -9.3724 H         1 PLP         0.0000 
     24 HOP3      -17.5709    9.2394   -8.4207 H         1 PLP         0.0000 
     25 H25       -14.9348   14.9551   -8.5657 H         1 PLP         0.0000 
@<TRIPOS>BOND
     1    1    2 ar   
     2    1   10 ar   
     3    1   25 1    
     4    2    3 1    
     5    2    4 ar   
     6    3   17 1    
     7    3   18 1    
     8    3   19 1    
     9    4    5 1    
    10    4    6 ar   
    11    6    7 1    
    12    6    9 ar   
    13    7    8 2    
    14    7   20 1    
    15    9   10 ar   
    16    9   11 1    
    17   10   21 1    
    18   11   12 1    
    19   11   22 1    
    20   11   23 1    
    21   12   13 1    
    22   13   14 2    
    23   13   15 1    
    24   13   16 1    
    25   16   24 1    
@<TRIPOS>SUBSTRUCTURE
     1 PLP         1 GROUP             0       ****    0 ROOT    
@<TRIPOS>MOLECULE
PLP
23   23    1
SMALL
USER_CHARGES


@<TRIPOS>ATOM
      1 N1        -14.3330   14.0520   -8.3860 N.ar      1 PLP         0.0000 
      2 C2        -13.0670   14.1640   -7.9320 C.ar      1 PLP         0.0000 
      3 C2A       -12.5230   15.5540   -7.6740 C.3       1 PLP         0.0000 
      4 C3        -12.3130   12.9900   -7.7180 C.ar      1 PLP         0.0000 
      5 O3        -11.0530   13.1590   -7.2400 O.co2     1 PLP         0.0000 
      6 C4        -12.8690   11.7450   -7.9410 C.ar      1 PLP         0.0000 
      7 C4A       -12.0000   10.5750   -8.1130 C.2       1 PLP         0.0000 
      8 O4A       -10.8480   10.7480   -8.7890 O.2       1 PLP         0.0000 
      9 C5        -14.2050   11.7230   -8.4280 C.ar      1 PLP         0.0000 
     10 C6        -14.9090   12.8520   -8.6360 C.ar      1 PLP         0.0000 
     11 C5A       -14.8540   10.3400   -8.6840 C.3       1 PLP         0.0000 
     12 O4P       -14.9550    9.6800   -7.4040 O.3       1 PLP         0.0000 
     13 P         -15.9170    8.4130   -7.1770 P.3       1 PLP         0.0000 
     14 O1P       -15.4670    7.4080   -8.2390 O.co2     1 PLP         0.0000 
     15 O2P       -15.6850    7.9810   -5.7620 O.co2     1 PLP         0.0000 
     16 O3P       -17.2790    8.8940   -7.4180 O.co2     1 PLP         0.0000 
     17 H2A1      -13.2947   16.3002   -7.9141 H         1 PLP         0.0000 
     18 H2A2      -11.6387   15.7247   -8.3056 H         1 PLP         0.0000 
     19 H2A3      -12.2405   15.6464   -6.6149 H         1 PLP         0.0000 
     20 H4A       -12.2596    9.5836   -7.7132 H         1 PLP         0.0000 
     21 H6        -15.9460   12.7940   -9.0070 H         1 PLP         0.0000 
     22 H5A1      -15.8498   10.4792   -9.1300 H         1 PLP         0.0000 
     23 H5A2      -14.2218    9.7600   -9.3724 H         1 PLP         0.0000 
@<TRIPOS>BOND
     1    1    2 ar   
     2    1   10 ar   
     3    2    3 1    
     4    2    4 ar   
     5    3   17 1    
     6    3   18 1    
     7    3   19 1    
     8    4    5 1    
     9    4    6 ar   
    10    6    7 1    
    11    6    9 ar   
    12    7    8 2    
    13    7   20 1    
    14    9   10 ar   
    15    9   11 1    
    16   10   21 1    
    17   11   12 1    
    18   11   22 1    
    19   11   23 1    
    20   12   13 1    
    21   13   14 2    
    22   13   15 1    
    23   13   16 1    
@<TRIPOS>SUBSTRUCTURE
     1 PLP         1 GROUP             0       ****    0 ROOT    
@<TRIPOS>MOLECULE
PLP
24   24    1
SMALL
USER_CHARGES


@<TRIPOS>ATOM
      1 N1        -14.3330   14.0520   -8.3860 N.ar      1 PLP         0.0000 
      2 C2        -13.0670   14.1640   -7.9320 C.ar      1 PLP         0.0000 
      3 C2A       -12.5230   15.5540   -7.6740 C.3       1 PLP         0.0000 
      4 C3        -12.3130   12.9900   -7.7180 C.ar      1 PLP         0.0000 
      5 O3        -11.0530   13.1590   -7.2400 O.3       1 PLP         0.0000 
      6 C4        -12.8690   11.7450   -7.9410 C.ar      1 PLP         0.0000 
      7 C4A       -12.0000   10.5750   -8.1130 C.2       1 PLP         0.0000 
      8 O4A       -10.8480   10.7480   -8.7890 O.2       1 PLP         0.0000 
      9 C5        -14.2050   11.7230   -8.4280 C.ar      1 PLP         0.0000 
     10 C6        -14.9090   12.8520   -8.6360 C.ar      1 PLP         0.0000 
     11 C5A       -14.8540   10.3400   -8.6840 C.3       1 PLP         0.0000 
     12 O4P       -14.9550    9.6800   -7.4040 O.3       1 PLP         0.0000 
     13 P         -15.9170    8.4130   -7.1770 P.3       1 PLP         0.0000 
     14 O1P       -15.4670    7.4080   -8.2390 O.co2     1 PLP         0.0000 
     15 O2P       -15.6850    7.9810   -5.7620 O.co2     1 PLP         0.0000 
     16 O3P       -17.2790    8.8940   -7.4180 O.co2     1 PLP         0.0000 
     17 H2A1      -13.2947   16.3002   -7.9141 H         1 PLP         0.0000 
     18 H2A2      -11.6387   15.7247   -8.3056 H         1 PLP         0.0000 
     19 H2A3      -12.2405   15.6464   -6.6149 H         1 PLP         0.0000 
     20 HO3       -10.6569   14.1726   -7.0798 H         1 PLP         0.0000 
     21 H4A       -12.2596    9.5836   -7.7132 H         1 PLP         0.0000 
     22 H6        -15.9460   12.7940   -9.0070 H         1 PLP         0.0000 
     23 H5A1      -15.8498   10.4792   -9.1300 H         1 PLP         0.0000 
     24 H5A2      -14.2218    9.7600   -9.3724 H         1 PLP         0.0000 
@<TRIPOS>BOND
     1    1    2 ar   
     2    1   10 ar   
     3    2    3 1    
     4    2    4 ar   
     5    3   17 1    
     6    3   18 1    
     7    3   19 1    
     8    4    5 1    
     9    4    6 ar   
    10    5   20 1    
    11    6    7 1    
    12    6    9 ar   
    13    7    8 2    
    14    7   21 1    
    15    9   10 ar   
    16    9   11 1    
    17   10   22 1    
    18   11   12 1    
    19   11   23 1    
    20   11   24 1    
    21   12   13 1    
    22   13   14 2    
    23   13   15 1    
    24   13   16 1    
@<TRIPOS>SUBSTRUCTURE
     1 PLP         1 GROUP             0       ****    0 ROOT    
@<TRIPOS>MOLECULE
PLP
24   24    1
SMALL
USER_CHARGES


@<TRIPOS>ATOM
      1 N1        -14.3330   14.0520   -8.3860 N.ar      1 PLP         0.0000 
      2 C2        -13.0670   14.1640   -7.9320 C.ar      1 PLP         0.0000 
      3 C2A       -12.5230   15.5540   -7.6740 C.3       1 PLP         0.0000 
      4 C3        -12.3130   12.9900   -7.7180 C.ar      1 PLP         0.0000 
      5 O3        -11.0530   13.1590   -7.2400 O.co2     1 PLP         0.0000 
      6 C4        -12.8690   11.7450   -7.9410 C.ar      1 PLP         0.0000 
      7 C4A       -12.0000   10.5750   -8.1130 C.2       1 PLP         0.0000 
      8 O4A       -10.8480   10.7480   -8.7890 O.2       1 PLP         0.0000 
      9 C5        -14.2050   11.7230   -8.4280 C.ar      1 PLP         0.0000 
     10 C6        -14.9090   12.8520   -8.6360 C.ar      1 PLP         0.0000 
     11 C5A       -14.8540   10.3400   -8.6840 C.3       1 PLP         0.0000 
     12 O4P       -14.9550    9.6800   -7.4040 O.3       1 PLP         0.0000 
     13 P         -15.9170    8.4130   -7.1770 P.3       1 PLP         0.0000 
     14 O1P       -15.4670    7.4080   -8.2390 O.co2     1 PLP         0.0000 
     15 O2P       -15.6850    7.9810   -5.7620 O.co2     1 PLP         0.0000 
     16 O3P       -17.2790    8.8940   -7.4180 O.3       1 PLP         0.0000 
     17 H2A1      -13.2947   16.3002   -7.9141 H         1 PLP         0.0000 
     18 H2A2      -11.6387   15.7247   -8.3056 H         1 PLP         0.0000 
     19 H2A3      -12.2405   15.6464   -6.6149 H         1 PLP         0.0000 
     20 H4A       -12.2596    9.5836   -7.7132 H         1 PLP         0.0000 
     21 H6        -15.9460   12.7940   -9.0070 H         1 PLP         0.0000 
     22 H5A1      -15.8498   10.4792   -9.1300 H         1 PLP         0.0000 
     23 H5A2      -14.2218    9.7600   -9.3724 H         1 PLP         0.0000 
     24 HOP3      -17.5709    9.2394   -8.4207 H         1 PLP         0.0000 
@<TRIPOS>BOND
     1    1    2 ar   
     2    1   10 ar   
     3    2    3 1    
     4    2    4 ar   
     5    3   17 1    
     6    3   18 1    
     7    3   19 1    
     8    4    5 1    
     9    4    6 ar   
    10    6    7 1    
    11    6    9 ar   
    12    7    8 2    
    13    7   20 1    
    14    9   10 ar   
    15    9   11 1    
    16   10   21 1    
    17   11   12 1    
    18   11   22 1    
    19   11   23 1    
    20   12   13 1    
    21   13   14 2    
    22   13   15 1    
    23   13   16 1    
    24   16   24 1    
@<TRIPOS>SUBSTRUCTURE
     1 PLP         1 GROUP             0       ****    0 ROOT    
@<TRIPOS>MOLECULE
PLP
25   25    1
SMALL
USER_CHARGES


@<TRIPOS>ATOM
      1 N1        -14.3330   14.0520   -8.3860 N.ar      1 PLP         0.0000 
      2 C2        -13.0670   14.1640   -7.9320 C.ar      1 PLP         0.0000 
      3 C2A       -12.5230   15.5540   -7.6740 C.3       1 PLP         0.0000 
      4 C3        -12.3130   12.9900   -7.7180 C.ar      1 PLP         0.0000 
      5 O3        -11.0530   13.1590   -7.2400 O.3       1 PLP         0.0000 
      6 C4        -12.8690   11.7450   -7.9410 C.ar      1 PLP         0.0000 
      7 C4A       -12.0000   10.5750   -8.1130 C.2       1 PLP         0.0000 
      8 O4A       -10.8480   10.7480   -8.7890 O.2       1 PLP         0.0000 
      9 C5        -14.2050   11.7230   -8.4280 C.ar      1 PLP         0.0000 
     10 C6        -14.9090   12.8520   -8.6360 C.ar      1 PLP         0.0000 
     11 C5A       -14.8540   10.3400   -8.6840 C.3       1 PLP         0.0000 
     12 O4P       -14.9550    9.6800   -7.4040 O.3       1 PLP         0.0000 
     13 P         -15.9170    8.4130   -7.1770 P.3       1 PLP         0.0000 
     14 O1P       -15.4670    7.4080   -8.2390 O.co2     1 PLP         0.0000 
     15 O2P       -15.6850    7.9810   -5.7620 O.co2     1 PLP         0.0000 
     16 O3P       -17.2790    8.8940   -7.4180 O.3       1 PLP         0.0000 
     17 H2A1      -13.2947   16.3002   -7.9141 H         1 PLP         0.0000 
     18 H2A2      -11.6387   15.7247   -8.3056 H         1 PLP         0.0000 
     19 H2A3      -12.2405   15.6464   -6.6149 H         1 PLP         0.0000 
     20 HO3       -10.6569   14.1726   -7.0798 H         1 PLP         0.0000 
     21 H4A       -12.2596    9.5836   -7.7132 H         1 PLP         0.0000 
     22 H6        -15.9460   12.7940   -9.0070 H         1 PLP         0.0000 
     23 H5A1      -15.8498   10.4792   -9.1300 H         1 PLP         0.0000 
     24 H5A2      -14.2218    9.7600   -9.3724 H         1 PLP         0.0000 
     25 HOP3      -17.5709    9.2394   -8.4207 H         1 PLP         0.0000 
@<TRIPOS>BOND
     1    1    2 ar   
     2    1   10 ar   
     3    2    3 1    
     4    2    4 ar   
     5    3   17 1    
     6    3   18 1    
     7    3   19 1    
     8    4    5 1    
     9    4    6 ar   
    10    5   20 1    
    11    6    7 1    
    12    6    9 ar   
    13    7    8 2    
    14    7   21 1    
    15    9   10 ar   
    16    9   11 1    
    17   10   22 1    
    18   11   12 1    
    19   11   23 1    
    20   11   24 1    
    21   12   13 1    
    22   13   14 2    
    23   13   15 1    
    24   13   16 1    
    25   16   25 1    
@<TRIPOS>SUBSTRUCTURE
     1 PLP         1 GROUP             0       ****    0 ROOT    
