@<TRIPOS>MOLECULE
FMN
   52    54     1     0     0
SMALL
NO_CHARGES

@<TRIPOS>ATOM
      1  N1        33.8640    7.2250   13.5830 N.ar      1 FMN         0.0000
      2  C2        33.0310    6.3190   13.0620 C.ar      1 FMN         0.0000
      3  O2        33.1850    5.1330   13.2150 O.2       1 FMN         0.0000
      4  N3        31.9740    6.7210   12.1760 N.am      1 FMN         0.0000
      5  C4        31.7880    8.0070   11.8260 C.ar      1 FMN         0.0000
      6  O4        30.8990    8.3580   11.0370 O.2       1 FMN         0.0000
      7  C4A       32.7360    8.9900   12.3570 C.ar      1 FMN         0.0000
      8  N5        32.5590   10.2790   12.1300 N.ar      1 FMN         0.0000
      9  C5A       33.3450   11.1860   12.7220 C.ar      1 FMN         0.0000
     10  C6        33.1220   12.6070   12.4870 C.ar      1 FMN         0.0000
     11  C7        33.8140   13.5180   13.2260 C.ar      1 FMN         0.0000
     12  C7M       33.4890   15.0180   13.1220 C.3       1 FMN         0.0000
     13  C8        34.8930   13.1170   14.0900 C.ar      1 FMN         0.0000
     14  C8M       35.8120   14.1150   14.7780 C.3       1 FMN         0.0000
     15  C9        35.1530   11.7920   14.2730 C.ar      1 FMN         0.0000
     16  C9A       34.3820   10.8090   13.6740 C.ar      1 FMN         0.0000
     17  N10       34.5570    9.4340   13.8830 N.pl3     1 FMN         0.0000
     18  C10       33.7860    8.4950   13.2630 C.ar      1 FMN         0.0000
     19  C1'       35.5540    8.9250   14.8610 C.3       1 FMN         0.0000
     20  C2'       34.7890    8.5870   16.1570 C.3       1 FMN         0.0000
     21  O2'       34.4170    9.8290   16.7940 O.3       1 FMN         0.0000
     22  C3'       35.6810    7.8210   17.1500 C.3       1 FMN         0.0000
     23  O3'       36.8490    8.6620   17.4880 O.3       1 FMN         0.0000
     24  C4'       36.2120    6.5180   16.5910 C.3       1 FMN         0.0000
     25  O4'       35.1490    5.8040   15.9090 O.3       1 FMN         0.0000
     26  C5'       36.7120    5.6340   17.7210 C.3       1 FMN         0.0000
     27  O5'       35.6040    5.2520   18.5790 O.3       1 FMN         0.0000
     28  P         35.8370    4.6280   20.0380 P.3       1 FMN         0.0000
     29  O1P       36.5850    5.6920   20.8020 O.2       1 FMN         0.0000
     30  O2P       36.6820    3.3640   19.8470 O.3       1 FMN         0.0000
     31  O3P       34.4360    4.3060   20.5540 O.3       1 FMN         0.0000
     32  HN3       31.3580    6.0240   11.8080 H         1 FMN         0.0000
     33  H6        32.4170   12.9330   11.7370 H         1 FMN         0.0000
     34 HM71       32.7330   15.2830   13.8760 H         1 FMN         0.0000
     35 HM72       34.4030   15.6040   13.2970 H         1 FMN         0.0000
     36 HM73       33.0980   15.2400   12.1180 H         1 FMN         0.0000
     37 HM81       35.4060   14.3660   15.7690 H         1 FMN         0.0000
     38 HM82       36.8130   13.6730   14.8930 H         1 FMN         0.0000
     39 HM83       35.8830   15.0280   14.1690 H         1 FMN         0.0000
     40  H9        35.9820   11.5000   14.9010 H         1 FMN         0.0000
     41 H1'1       36.0430    8.0230   14.4660 H         1 FMN         0.0000
     42 H1'2       36.3130    9.6960   15.0610 H         1 FMN         0.0000
     43  H2'       33.9000    7.9850   15.9160 H         1 FMN         0.0000
     44 HO2'       33.9430    9.6440   17.5970 H         1 FMN         0.0000
     45  H3'       35.1000    7.6130   18.0610 H         1 FMN         0.0000
     46 HO3'       37.4070    8.1980   18.1010 H         1 FMN         0.0000
     47  H4'       37.0390    6.7270   15.8970 H         1 FMN         0.0000
     48 HO4'       35.4880    4.9880   15.5610 H         1 FMN         0.0000
     49 H5'1       37.1750    4.7300   17.2990 H         1 FMN         0.0000
     50 H5'2       37.4580    6.1850   18.3120 H         1 FMN         0.0000
     51 HOP2       37.5330    3.4870   20.2510 H         1 FMN         0.0000
     52 HOP3       34.2440    4.8490   21.3090 H         1 FMN         0.0000
@<TRIPOS>BOND
     1    1    2 ar
     2    1   18 ar
     3    2    3 2
     4    2    4 ar
     5    4    5 ar
     6    4   32 1
     7    5    6 2
     8    5    7 ar
     9    7    8 ar
    10    7   18 1
    11    8    9 ar
    12    9   10 ar
    13    9   16 ar
    14   10   11 ar
    15   10   33 1
    16   11   12 1
    17   11   13 ar
    18   12   34 1
    19   12   35 1
    20   12   36 1
    21   13   14 1
    22   13   15 ar
    23   14   37 1
    24   14   38 1
    25   14   39 1
    26   15   16 ar
    27   15   40 1
    28   16   17 ar
    29   17   18 ar
    30   17   19 1
    31   19   20 1
    32   19   41 1
    33   19   42 1
    34   20   21 1
    35   20   22 1
    36   20   43 1
    37   21   44 1
    38   22   23 1
    39   22   24 1
    40   22   45 1
    41   23   46 1
    42   24   25 1
    43   24   26 1
    44   24   47 1
    45   25   48 1
    46   26   27 1
    47   26   49 1
    48   26   50 1
    49   27   28 1
    50   28   29 2
    51   28   30 1
    52   28   31 1
    53   30   51 1
    54   31   52 1
@<TRIPOS>SUBSTRUCTURE
     1 FMN         1 GROUP 0 A     ****
