NAP
                    3D
 Structure written by MMmdl.
 74 78  0  0  1  0            999 V2000
   17.1740   26.1340   12.0400 P   0  0  0  0  0  0
   16.0480   25.3140   12.5000 O   0  0  0  0  0  0
   18.4780   26.1140   12.6700 O   0  5  0  0  0  0
   17.3170   25.8890   10.4370 O   0  0  0  0  0  0
   17.8130   26.9900    9.4950 C   0  0  0  0  0  0
   17.9620   26.1550    8.3450 C   0  0  1  0  0  0
   17.8590   27.3510    7.2940 O   0  0  0  0  0  0
   18.8400   25.7890    7.5350 C   0  0  1  0  0  0
   18.2080   24.5970    7.8390 O   0  0  0  0  0  0
   19.2760   25.7510    6.1470 C   0  0  1  0  0  0
   18.8830   24.7390    5.4810 O   0  0  0  0  0  0
   18.3940   26.8940    5.9880 C   0  0  2  0  0  0
   19.2370   28.0900    5.5900 N   0  0  0  0  0  0
   20.4660   28.6370    6.0110 C   0  0  0  0  0  0
   20.9350   29.5480    5.1920 N   0  0  0  0  0  0
   20.0030   29.6240    4.1730 C   0  0  0  0  0  0
   19.9350   30.4020    2.9750 C   0  0  0  0  0  0
   20.8890   31.2620    2.6350 N   0  0  0  0  0  0
   18.8410   30.2300    2.1530 N   0  0  0  0  0  0
   17.8670   29.3500    2.4800 C   0  0  0  0  0  0
   17.8590   28.5740    3.5790 N   0  0  0  0  0  0
   18.9620   28.7580    4.3950 C   0  0  0  0  0  0
   16.4580   27.5660   12.2080 O   0  0  0  0  0  0
   15.2160   28.0680   13.1530 P   0  0  2  0  0  0
   13.9830   27.4170   12.6420 O   0  0  0  0  0  0
   15.3080   29.5540   13.0930 O   0  0  0  0  0  0
   15.4870   27.6580   14.6850 O   0  0  0  0  0  0
   16.5990   28.1690   15.4750 C   0  0  0  0  0  0
   17.3950   26.9680   16.0250 C   0  0  1  0  0  0
   18.6530   27.3660   16.6140 O   0  0  0  0  0  0
   16.6940   26.1930   17.1670 C   0  0  1  0  0  0
   17.0850   24.8060   17.2870 O   0  0  0  0  0  0
   17.0930   26.9360   18.3930 C   0  0  1  0  0  0
   16.9790   26.2050   19.5880 O   0  0  0  0  0  0
   18.5690   27.2430   18.0380 C   0  0  2  0  0  0
   19.1250   28.3610   18.8110 N   0  0  0  0  0  0
   18.5550   29.6410   18.6670 C   0  0  0  0  0  0
   19.1410   30.6830   19.4650 C   0  0  0  0  0  0
   18.6520   32.0500   19.4140 C   0  0  0  0  0  0
   19.1610   32.9430   20.1020 O   0  0  0  0  0  0
   17.6220   32.3900   18.6160 N   0  0  0  0  0  0
   20.2220   30.3760   20.3170 C   0  0  0  0  0  0
   20.7460   29.1390   20.4350 C   0  0  0  0  0  0
   20.2020   28.1290   19.6810 C   0  0  0  0  0  0
   19.6640   24.5550    4.0970 P   0  0  0  0  0  0
   21.1170   24.3600    4.4040 O   0  0  0  0  0  0
   18.9640   23.4100    3.5430 O   0  5  0  0  0  0
   19.3910   25.7980    3.3810 O   0  0  0  0  0  0
   17.0483   27.7767    9.4157 H   0  0  0  0  0  0
   18.7432   27.4217    9.8931 H   0  0  0  0  0  0
   17.6025   25.1989    8.7533 H   0  0  0  0  0  0
   19.6806   26.4653    7.7495 H   0  0  0  0  0  0
   17.8041   24.4305    8.8485 H   0  0  0  0  0  0
   20.3163   25.6482    5.8047 H   0  0  0  0  0  0
   17.6138   26.5596    5.2884 H   0  0  0  0  0  0
   21.0250   28.3690    6.9230 H   0  0  0  0  0  0
   21.7626   31.4011    3.2888 H   0  0  0  0  0  0
   20.8052   31.8349    1.6997 H   0  0  0  0  0  0
   17.0080   29.2570    1.7930 H   0  0  0  0  0  0
   17.2459   28.7905   14.8384 H   0  0  0  0  0  0
   16.2101   28.7760   16.3059 H   0  0  0  0  0  0
   17.5751   26.3471   15.1351 H   0  0  0  0  0  0
   15.6083   26.0976   17.0184 H   0  0  0  0  0  0
   16.8698   24.1013   16.4703 H   0  0  0  0  0  0
   16.4146   27.7581   18.6649 H   0  0  0  0  0  0
   15.9863   25.9158   19.9633 H   0  0  0  0  0  0
   19.2830   26.4453   18.2908 H   0  0  0  0  0  0
   17.7135   29.8692   17.9964 H   0  0  0  0  0  0
   17.1389   31.6280   17.9867 H   0  0  0  0  0  0
   17.2637   33.4298   18.5934 H   0  0  0  0  0  0
   20.6910   31.1590   20.9350 H   0  0  0  0  0  0
   21.5866   28.9281   21.1124 H   0  0  0  0  0  0
   20.6099   27.1098   19.7506 H   0  0  0  0  0  0
   19.8643   26.7359    3.7071 H   0  0  0  0  0  0
  1  2  2  0  0  0
  1  3  1  0  0  0
  1  4  1  0  0  0
  1 23  1  0  0  0
  4  5  1  0  0  0
  5  6  1  0  0  0
  5 49  1  0  0  0
  5 50  1  0  0  0
  6  7  1  0  0  0
  6  8  1  0  0  0
  6 51  1  0  0  0
  7 12  1  0  0  0
  8  9  1  0  0  0
  8 10  1  0  0  0
  8 52  1  0  0  0
  9 53  1  0  0  0
 10 11  1  0  0  0
 10 12  1  0  0  0
 10 54  1  0  0  0
 11 45  1  0  0  0
 12 13  1  0  0  0
 12 55  1  0  0  0
 13 14  1  0  0  0
 13 22  1  0  0  0
 14 15  2  0  0  0
 14 56  1  0  0  0
 15 16  1  0  0  0
 16 17  1  0  0  0
 16 22  2  0  0  0
 17 18  1  0  0  0
 17 19  2  0  0  0
 18 57  1  0  0  0
 18 58  1  0  0  0
 19 20  1  0  0  0
 20 21  2  0  0  0
 20 59  1  0  0  0
 21 22  1  0  0  0
 23 24  1  0  0  0
 24 25  2  0  0  0
 24 26  1  0  0  0
 24 27  1  0  0  0
 27 28  1  0  0  0
 28 29  1  0  0  0
 28 60  1  0  0  0
 28 61  1  0  0  0
 29 30  1  0  0  0
 29 31  1  0  0  0
 29 62  1  0  0  0
 30 35  1  0  0  0
 31 32  1  0  0  0
 31 33  1  0  0  0
 31 63  1  0  0  0
 32 64  1  0  0  0
 33 34  1  0  0  0
 33 35  1  0  0  0
 33 65  1  0  0  0
 34 66  1  0  0  0
 35 36  1  0  0  0
 35 67  1  0  0  0
 36 37  1  0  0  0
 36 44  1  0  0  0
 37 38  2  0  0  0
 37 68  1  0  0  0
 38 39  1  0  0  0
 38 42  1  0  0  0
 39 40  2  0  0  0
 39 41  1  0  0  0
 41 69  1  0  0  0
 41 70  1  0  0  0
 42 43  1  0  0  0
 42 71  1  0  0  0
 43 44  2  0  0  0
 43 72  1  0  0  0
 44 73  1  0  0  0
 45 46  2  0  0  0
 45 47  1  0  0  0
 45 48  1  0  0  0
 48 74  1  0  0  0
M  CHG  2   3  -1  47  -1
M  END
> <s_m_source_file>
/cbio/jclab/home/rustenburg/PFK/Epik-Ligands/Results/InProgress/NADP NICOTINAMIDE-ADENINE-DINUCLEOTIDE PHOSPHATE/pH_4.0/NADP NICOTINAMIDE-ADENINE-DINUCLEOTIDE PHOSPHATE_pH_4.0-before_epik.mol2

> <i_m_source_file_index>
1

> <r_epik_Ionization_Penalty>
  0.5529

> <r_epik_Ionization_Penalty_Charging>
  0.1443

> <r_epik_Ionization_Penalty_Neutral>
  0.4087

> <r_epik_State_Penalty>
  0.2240

> <r_epik_Charging_Adjusted_Penalty>
0.368240468904768

> <i_epik_Tot_Q>
-2

> <i_epik_Tot_abs_Q>
2

> <s_epik_Chemistry_Notes>
This compound has an imine and may undergo hydrolysis. This compound contains an acetal/aminal-like group ( X-CH(R)-Y where X, Y are N, S, or O) that may be acid/base labile, releasing an aldehyde.

$$$$
NAP
                    3D
 Structure written by MMmdl.
 75 79  0  0  1  0            999 V2000
   17.1740   26.1340   12.0400 P   0  0  0  0  0  0
   16.0480   25.3140   12.5000 O   0  0  0  0  0  0
   18.4780   26.1140   12.6700 O   0  5  0  0  0  0
   17.3170   25.8890   10.4370 O   0  0  0  0  0  0
   17.8130   26.9900    9.4950 C   0  0  0  0  0  0
   17.9620   26.1550    8.3450 C   0  0  1  0  0  0
   17.8590   27.3510    7.2940 O   0  0  0  0  0  0
   18.8400   25.7890    7.5350 C   0  0  1  0  0  0
   18.2080   24.5970    7.8390 O   0  0  0  0  0  0
   19.2760   25.7510    6.1470 C   0  0  1  0  0  0
   18.8830   24.7390    5.4810 O   0  0  0  0  0  0
   18.3940   26.8940    5.9880 C   0  0  2  0  0  0
   19.2370   28.0900    5.5900 N   0  0  0  0  0  0
   20.4660   28.6370    6.0110 C   0  0  0  0  0  0
   20.9350   29.5480    5.1920 N   0  3  0  0  0  0
   20.0030   29.6240    4.1730 C   0  0  0  0  0  0
   19.9350   30.4020    2.9750 C   0  0  0  0  0  0
   20.8890   31.2620    2.6350 N   0  0  0  0  0  0
   18.8410   30.2300    2.1530 N   0  0  0  0  0  0
   17.8670   29.3500    2.4800 C   0  0  0  0  0  0
   17.8590   28.5740    3.5790 N   0  0  0  0  0  0
   18.9620   28.7580    4.3950 C   0  0  0  0  0  0
   16.4580   27.5660   12.2080 O   0  0  0  0  0  0
   15.2160   28.0680   13.1530 P   0  0  2  0  0  0
   13.9830   27.4170   12.6420 O   0  0  0  0  0  0
   15.3080   29.5540   13.0930 O   0  0  0  0  0  0
   15.4870   27.6580   14.6850 O   0  0  0  0  0  0
   16.5990   28.1690   15.4750 C   0  0  0  0  0  0
   17.3950   26.9680   16.0250 C   0  0  1  0  0  0
   18.6530   27.3660   16.6140 O   0  0  0  0  0  0
   16.6940   26.1930   17.1670 C   0  0  1  0  0  0
   17.0850   24.8060   17.2870 O   0  0  0  0  0  0
   17.0930   26.9360   18.3930 C   0  0  1  0  0  0
   16.9790   26.2050   19.5880 O   0  0  0  0  0  0
   18.5690   27.2430   18.0380 C   0  0  2  0  0  0
   19.1250   28.3610   18.8110 N   0  0  0  0  0  0
   18.5550   29.6410   18.6670 C   0  0  0  0  0  0
   19.1410   30.6830   19.4650 C   0  0  0  0  0  0
   18.6520   32.0500   19.4140 C   0  0  0  0  0  0
   19.1610   32.9430   20.1020 O   0  0  0  0  0  0
   17.6220   32.3900   18.6160 N   0  0  0  0  0  0
   20.2220   30.3760   20.3170 C   0  0  0  0  0  0
   20.7460   29.1390   20.4350 C   0  0  0  0  0  0
   20.2020   28.1290   19.6810 C   0  0  0  0  0  0
   19.6640   24.5550    4.0970 P   0  0  0  0  0  0
   21.1170   24.3600    4.4040 O   0  0  0  0  0  0
   18.9640   23.4100    3.5430 O   0  5  0  0  0  0
   19.3910   25.7980    3.3810 O   0  0  0  0  0  0
   17.0483   27.7767    9.4157 H   0  0  0  0  0  0
   18.7432   27.4217    9.8931 H   0  0  0  0  0  0
   17.6025   25.1989    8.7533 H   0  0  0  0  0  0
   19.6806   26.4653    7.7495 H   0  0  0  0  0  0
   17.8041   24.4305    8.8485 H   0  0  0  0  0  0
   20.3163   25.6482    5.8047 H   0  0  0  0  0  0
   17.6138   26.5596    5.2884 H   0  0  0  0  0  0
   21.0250   28.3690    6.9230 H   0  0  0  0  0  0
   21.7626   31.4011    3.2888 H   0  0  0  0  0  0
   20.8052   31.8349    1.6997 H   0  0  0  0  0  0
   17.0080   29.2570    1.7930 H   0  0  0  0  0  0
   17.2459   28.7905   14.8384 H   0  0  0  0  0  0
   16.2101   28.7760   16.3059 H   0  0  0  0  0  0
   17.5751   26.3471   15.1351 H   0  0  0  0  0  0
   15.6083   26.0976   17.0184 H   0  0  0  0  0  0
   16.8698   24.1013   16.4703 H   0  0  0  0  0  0
   16.4146   27.7581   18.6649 H   0  0  0  0  0  0
   15.9863   25.9158   19.9633 H   0  0  0  0  0  0
   19.2830   26.4453   18.2908 H   0  0  0  0  0  0
   17.7135   29.8692   17.9964 H   0  0  0  0  0  0
   17.1389   31.6280   17.9867 H   0  0  0  0  0  0
   17.2637   33.4298   18.5934 H   0  0  0  0  0  0
   20.6910   31.1590   20.9350 H   0  0  0  0  0  0
   21.5866   28.9281   21.1124 H   0  0  0  0  0  0
   20.6099   27.1098   19.7506 H   0  0  0  0  0  0
   19.8643   26.7359    3.7071 H   0  0  0  0  0  0
   21.8866   30.0519    5.4166 H   0  0  0  0  0  0
  1  2  2  0  0  0
  1  3  1  0  0  0
  1  4  1  0  0  0
  1 23  1  0  0  0
  4  5  1  0  0  0
  5  6  1  0  0  0
  5 49  1  0  0  0
  5 50  1  0  0  0
  6  7  1  0  0  0
  6  8  1  0  0  0
  6 51  1  0  0  0
  7 12  1  0  0  0
  8  9  1  0  0  0
  8 10  1  0  0  0
  8 52  1  0  0  0
  9 53  1  0  0  0
 10 11  1  0  0  0
 10 12  1  0  0  0
 10 54  1  0  0  0
 11 45  1  0  0  0
 12 13  1  0  0  0
 12 55  1  0  0  0
 13 14  1  0  0  0
 13 22  1  0  0  0
 14 15  2  0  0  0
 14 56  1  0  0  0
 15 16  1  0  0  0
 15 75  1  0  0  0
 16 17  1  0  0  0
 16 22  2  0  0  0
 17 18  1  0  0  0
 17 19  2  0  0  0
 18 57  1  0  0  0
 18 58  1  0  0  0
 19 20  1  0  0  0
 20 21  2  0  0  0
 20 59  1  0  0  0
 21 22  1  0  0  0
 23 24  1  0  0  0
 24 25  2  0  0  0
 24 26  1  0  0  0
 24 27  1  0  0  0
 27 28  1  0  0  0
 28 29  1  0  0  0
 28 60  1  0  0  0
 28 61  1  0  0  0
 29 30  1  0  0  0
 29 31  1  0  0  0
 29 62  1  0  0  0
 30 35  1  0  0  0
 31 32  1  0  0  0
 31 33  1  0  0  0
 31 63  1  0  0  0
 32 64  1  0  0  0
 33 34  1  0  0  0
 33 35  1  0  0  0
 33 65  1  0  0  0
 34 66  1  0  0  0
 35 36  1  0  0  0
 35 67  1  0  0  0
 36 37  1  0  0  0
 36 44  1  0  0  0
 37 38  2  0  0  0
 37 68  1  0  0  0
 38 39  1  0  0  0
 38 42  1  0  0  0
 39 40  2  0  0  0
 39 41  1  0  0  0
 41 69  1  0  0  0
 41 70  1  0  0  0
 42 43  1  0  0  0
 42 71  1  0  0  0
 43 44  2  0  0  0
 43 72  1  0  0  0
 44 73  1  0  0  0
 45 46  2  0  0  0
 45 47  1  0  0  0
 45 48  1  0  0  0
 48 74  1  0  0  0
M  CHG  3   3  -1  15   1  47  -1
M  END
> <s_m_source_file>
/cbio/jclab/home/rustenburg/PFK/Epik-Ligands/Results/InProgress/NADP NICOTINAMIDE-ADENINE-DINUCLEOTIDE PHOSPHATE/pH_4.0/NADP NICOTINAMIDE-ADENINE-DINUCLEOTIDE PHOSPHATE_pH_4.0-before_epik.mol2

> <i_m_source_file_index>
1

> <r_epik_Ionization_Penalty>
  1.8633

> <r_epik_Ionization_Penalty_Charging>
  1.8468

> <r_epik_Ionization_Penalty_Neutral>
  0.0165

> <r_epik_State_Penalty>
  1.1878

> <r_epik_Charging_Adjusted_Penalty>
3.03460404569479

> <i_epik_Tot_Q>
-1

> <i_epik_Tot_abs_Q>
3

> <s_epik_Chemistry_Notes>
This compound has an imine and may undergo hydrolysis. This compound contains an acetal/aminal-like group ( X-CH(R)-Y where X, Y are N, S, or O) that may be acid/base labile, releasing an aldehyde.

$$$$
NAP
                    3D
 Structure written by MMmdl.
 75 79  0  0  1  0            999 V2000
   17.1740   26.1340   12.0400 P   0  0  0  0  0  0
   16.0480   25.3140   12.5000 O   0  0  0  0  0  0
   18.4780   26.1140   12.6700 O   0  5  0  0  0  0
   17.3170   25.8890   10.4370 O   0  0  0  0  0  0
   17.8130   26.9900    9.4950 C   0  0  0  0  0  0
   17.9620   26.1550    8.3450 C   0  0  1  0  0  0
   17.8590   27.3510    7.2940 O   0  0  0  0  0  0
   18.8400   25.7890    7.5350 C   0  0  1  0  0  0
   18.2080   24.5970    7.8390 O   0  0  0  0  0  0
   19.2760   25.7510    6.1470 C   0  0  1  0  0  0
   18.8830   24.7390    5.4810 O   0  0  0  0  0  0
   18.3940   26.8940    5.9880 C   0  0  2  0  0  0
   19.2370   28.0900    5.5900 N   0  0  0  0  0  0
   20.4660   28.6370    6.0110 C   0  0  0  0  0  0
   20.9350   29.5480    5.1920 N   0  0  0  0  0  0
   20.0030   29.6240    4.1730 C   0  0  0  0  0  0
   19.9350   30.4020    2.9750 C   0  0  0  0  0  0
   20.8890   31.2620    2.6350 N   0  0  0  0  0  0
   18.8410   30.2300    2.1530 N   0  0  0  0  0  0
   17.8670   29.3500    2.4800 C   0  0  0  0  0  0
   17.8590   28.5740    3.5790 N   0  0  0  0  0  0
   18.9620   28.7580    4.3950 C   0  0  0  0  0  0
   16.4580   27.5660   12.2080 O   0  0  0  0  0  0
   15.2160   28.0680   13.1530 P   0  0  2  0  0  0
   13.9830   27.4170   12.6420 O   0  0  0  0  0  0
   15.3080   29.5540   13.0930 O   0  0  0  0  0  0
   15.4870   27.6580   14.6850 O   0  0  0  0  0  0
   16.5990   28.1690   15.4750 C   0  0  0  0  0  0
   17.3950   26.9680   16.0250 C   0  0  1  0  0  0
   18.6530   27.3660   16.6140 O   0  0  0  0  0  0
   16.6940   26.1930   17.1670 C   0  0  1  0  0  0
   17.0850   24.8060   17.2870 O   0  0  0  0  0  0
   17.0930   26.9360   18.3930 C   0  0  1  0  0  0
   16.9790   26.2050   19.5880 O   0  0  0  0  0  0
   18.5690   27.2430   18.0380 C   0  0  2  0  0  0
   19.1250   28.3610   18.8110 N   0  0  0  0  0  0
   18.5550   29.6410   18.6670 C   0  0  0  0  0  0
   19.1410   30.6830   19.4650 C   0  0  0  0  0  0
   18.6520   32.0500   19.4140 C   0  0  0  0  0  0
   19.1610   32.9430   20.1020 O   0  0  0  0  0  0
   17.6220   32.3900   18.6160 N   0  0  0  0  0  0
   20.2220   30.3760   20.3170 C   0  0  0  0  0  0
   20.7460   29.1390   20.4350 C   0  0  0  0  0  0
   20.2020   28.1290   19.6810 C   0  0  0  0  0  0
   19.6640   24.5550    4.0970 P   0  0  0  0  0  0
   21.1170   24.3600    4.4040 O   0  0  0  0  0  0
   18.9640   23.4100    3.5430 O   0  0  0  0  0  0
   19.3910   25.7980    3.3810 O   0  0  0  0  0  0
   17.0483   27.7767    9.4157 H   0  0  0  0  0  0
   18.7432   27.4217    9.8931 H   0  0  0  0  0  0
   17.6025   25.1989    8.7533 H   0  0  0  0  0  0
   19.6806   26.4653    7.7495 H   0  0  0  0  0  0
   17.8041   24.4305    8.8485 H   0  0  0  0  0  0
   20.3163   25.6482    5.8047 H   0  0  0  0  0  0
   17.6138   26.5596    5.2884 H   0  0  0  0  0  0
   21.0250   28.3690    6.9230 H   0  0  0  0  0  0
   21.7626   31.4011    3.2888 H   0  0  0  0  0  0
   20.8052   31.8349    1.6997 H   0  0  0  0  0  0
   17.0080   29.2570    1.7930 H   0  0  0  0  0  0
   17.2459   28.7905   14.8384 H   0  0  0  0  0  0
   16.2101   28.7760   16.3059 H   0  0  0  0  0  0
   17.5751   26.3471   15.1351 H   0  0  0  0  0  0
   15.6083   26.0976   17.0184 H   0  0  0  0  0  0
   16.8698   24.1013   16.4703 H   0  0  0  0  0  0
   16.4146   27.7581   18.6649 H   0  0  0  0  0  0
   15.9863   25.9158   19.9633 H   0  0  0  0  0  0
   19.2830   26.4453   18.2908 H   0  0  0  0  0  0
   17.7135   29.8692   17.9964 H   0  0  0  0  0  0
   17.1389   31.6280   17.9867 H   0  0  0  0  0  0
   17.2637   33.4298   18.5934 H   0  0  0  0  0  0
   20.6910   31.1590   20.9350 H   0  0  0  0  0  0
   21.5866   28.9281   21.1124 H   0  0  0  0  0  0
   20.6099   27.1098   19.7506 H   0  0  0  0  0  0
   19.0895   22.4161    3.9972 H   0  0  0  0  0  0
   19.8643   26.7359    3.7071 H   0  0  0  0  0  0
  1  2  2  0  0  0
  1  3  1  0  0  0
  1  4  1  0  0  0
  1 23  1  0  0  0
  4  5  1  0  0  0
  5  6  1  0  0  0
  5 49  1  0  0  0
  5 50  1  0  0  0
  6  7  1  0  0  0
  6  8  1  0  0  0
  6 51  1  0  0  0
  7 12  1  0  0  0
  8  9  1  0  0  0
  8 10  1  0  0  0
  8 52  1  0  0  0
  9 53  1  0  0  0
 10 11  1  0  0  0
 10 12  1  0  0  0
 10 54  1  0  0  0
 11 45  1  0  0  0
 12 13  1  0  0  0
 12 55  1  0  0  0
 13 14  1  0  0  0
 13 22  1  0  0  0
 14 15  2  0  0  0
 14 56  1  0  0  0
 15 16  1  0  0  0
 16 17  1  0  0  0
 16 22  2  0  0  0
 17 18  1  0  0  0
 17 19  2  0  0  0
 18 57  1  0  0  0
 18 58  1  0  0  0
 19 20  1  0  0  0
 20 21  2  0  0  0
 20 59  1  0  0  0
 21 22  1  0  0  0
 23 24  1  0  0  0
 24 25  2  0  0  0
 24 26  1  0  0  0
 24 27  1  0  0  0
 27 28  1  0  0  0
 28 29  1  0  0  0
 28 60  1  0  0  0
 28 61  1  0  0  0
 29 30  1  0  0  0
 29 31  1  0  0  0
 29 62  1  0  0  0
 30 35  1  0  0  0
 31 32  1  0  0  0
 31 33  1  0  0  0
 31 63  1  0  0  0
 32 64  1  0  0  0
 33 34  1  0  0  0
 33 35  1  0  0  0
 33 65  1  0  0  0
 34 66  1  0  0  0
 35 36  1  0  0  0
 35 67  1  0  0  0
 36 37  1  0  0  0
 36 44  1  0  0  0
 37 38  2  0  0  0
 37 68  1  0  0  0
 38 39  1  0  0  0
 38 42  1  0  0  0
 39 40  2  0  0  0
 39 41  1  0  0  0
 41 69  1  0  0  0
 41 70  1  0  0  0
 42 43  1  0  0  0
 42 71  1  0  0  0
 43 44  2  0  0  0
 43 72  1  0  0  0
 44 73  1  0  0  0
 45 46  2  0  0  0
 45 47  1  0  0  0
 45 48  1  0  0  0
 47 74  1  0  0  0
 48 75  1  0  0  0
M  CHG  1   3  -1
M  END
> <s_m_source_file>
/cbio/jclab/home/rustenburg/PFK/Epik-Ligands/Results/InProgress/NADP NICOTINAMIDE-ADENINE-DINUCLEOTIDE PHOSPHATE/pH_4.0/NADP NICOTINAMIDE-ADENINE-DINUCLEOTIDE PHOSPHATE_pH_4.0-before_epik.mol2

> <i_m_source_file_index>
1

> <r_epik_Ionization_Penalty>
  1.6619

> <r_epik_Ionization_Penalty_Charging>
  0.0616

> <r_epik_Ionization_Penalty_Neutral>
  1.6002

> <r_epik_State_Penalty>
  1.7833

> <r_epik_Charging_Adjusted_Penalty>
1.84494385120531

> <i_epik_Tot_Q>
-1

> <i_epik_Tot_abs_Q>
1

> <s_epik_Chemistry_Notes>
This compound has an imine and may undergo hydrolysis. This compound contains an acetal/aminal-like group ( X-CH(R)-Y where X, Y are N, S, or O) that may be acid/base labile, releasing an aldehyde.

$$$$
NAP
                    3D
 Structure written by MMmdl.
 76 80  0  0  1  0            999 V2000
   17.1740   26.1340   12.0400 P   0  0  0  0  0  0
   16.0480   25.3140   12.5000 O   0  0  0  0  0  0
   18.4780   26.1140   12.6700 O   0  5  0  0  0  0
   17.3170   25.8890   10.4370 O   0  0  0  0  0  0
   17.8130   26.9900    9.4950 C   0  0  0  0  0  0
   17.9620   26.1550    8.3450 C   0  0  1  0  0  0
   17.8590   27.3510    7.2940 O   0  0  0  0  0  0
   18.8400   25.7890    7.5350 C   0  0  1  0  0  0
   18.2080   24.5970    7.8390 O   0  0  0  0  0  0
   19.2760   25.7510    6.1470 C   0  0  1  0  0  0
   18.8830   24.7390    5.4810 O   0  0  0  0  0  0
   18.3940   26.8940    5.9880 C   0  0  2  0  0  0
   19.2370   28.0900    5.5900 N   0  0  0  0  0  0
   20.4660   28.6370    6.0110 C   0  0  0  0  0  0
   20.9350   29.5480    5.1920 N   0  3  0  0  0  0
   20.0030   29.6240    4.1730 C   0  0  0  0  0  0
   19.9350   30.4020    2.9750 C   0  0  0  0  0  0
   20.8890   31.2620    2.6350 N   0  0  0  0  0  0
   18.8410   30.2300    2.1530 N   0  0  0  0  0  0
   17.8670   29.3500    2.4800 C   0  0  0  0  0  0
   17.8590   28.5740    3.5790 N   0  0  0  0  0  0
   18.9620   28.7580    4.3950 C   0  0  0  0  0  0
   16.4580   27.5660   12.2080 O   0  0  0  0  0  0
   15.2160   28.0680   13.1530 P   0  0  2  0  0  0
   13.9830   27.4170   12.6420 O   0  0  0  0  0  0
   15.3080   29.5540   13.0930 O   0  0  0  0  0  0
   15.4870   27.6580   14.6850 O   0  0  0  0  0  0
   16.5990   28.1690   15.4750 C   0  0  0  0  0  0
   17.3950   26.9680   16.0250 C   0  0  1  0  0  0
   18.6530   27.3660   16.6140 O   0  0  0  0  0  0
   16.6940   26.1930   17.1670 C   0  0  1  0  0  0
   17.0850   24.8060   17.2870 O   0  0  0  0  0  0
   17.0930   26.9360   18.3930 C   0  0  1  0  0  0
   16.9790   26.2050   19.5880 O   0  0  0  0  0  0
   18.5690   27.2430   18.0380 C   0  0  2  0  0  0
   19.1250   28.3610   18.8110 N   0  0  0  0  0  0
   18.5550   29.6410   18.6670 C   0  0  0  0  0  0
   19.1410   30.6830   19.4650 C   0  0  0  0  0  0
   18.6520   32.0500   19.4140 C   0  0  0  0  0  0
   19.1610   32.9430   20.1020 O   0  0  0  0  0  0
   17.6220   32.3900   18.6160 N   0  0  0  0  0  0
   20.2220   30.3760   20.3170 C   0  0  0  0  0  0
   20.7460   29.1390   20.4350 C   0  0  0  0  0  0
   20.2020   28.1290   19.6810 C   0  0  0  0  0  0
   19.6640   24.5550    4.0970 P   0  0  0  0  0  0
   21.1170   24.3600    4.4040 O   0  0  0  0  0  0
   18.9640   23.4100    3.5430 O   0  0  0  0  0  0
   19.3910   25.7980    3.3810 O   0  0  0  0  0  0
   17.0483   27.7767    9.4157 H   0  0  0  0  0  0
   18.7432   27.4217    9.8931 H   0  0  0  0  0  0
   17.6025   25.1989    8.7533 H   0  0  0  0  0  0
   19.6806   26.4653    7.7495 H   0  0  0  0  0  0
   17.8041   24.4305    8.8485 H   0  0  0  0  0  0
   20.3163   25.6482    5.8047 H   0  0  0  0  0  0
   17.6138   26.5596    5.2884 H   0  0  0  0  0  0
   21.0250   28.3690    6.9230 H   0  0  0  0  0  0
   21.7626   31.4011    3.2888 H   0  0  0  0  0  0
   20.8052   31.8349    1.6997 H   0  0  0  0  0  0
   17.0080   29.2570    1.7930 H   0  0  0  0  0  0
   17.2459   28.7905   14.8384 H   0  0  0  0  0  0
   16.2101   28.7760   16.3059 H   0  0  0  0  0  0
   17.5751   26.3471   15.1351 H   0  0  0  0  0  0
   15.6083   26.0976   17.0184 H   0  0  0  0  0  0
   16.8698   24.1013   16.4703 H   0  0  0  0  0  0
   16.4146   27.7581   18.6649 H   0  0  0  0  0  0
   15.9863   25.9158   19.9633 H   0  0  0  0  0  0
   19.2830   26.4453   18.2908 H   0  0  0  0  0  0
   17.7135   29.8692   17.9964 H   0  0  0  0  0  0
   17.1389   31.6280   17.9867 H   0  0  0  0  0  0
   17.2637   33.4298   18.5934 H   0  0  0  0  0  0
   20.6910   31.1590   20.9350 H   0  0  0  0  0  0
   21.5866   28.9281   21.1124 H   0  0  0  0  0  0
   20.6099   27.1098   19.7506 H   0  0  0  0  0  0
   19.0895   22.4161    3.9972 H   0  0  0  0  0  0
   19.8643   26.7359    3.7071 H   0  0  0  0  0  0
   21.8866   30.0519    5.4166 H   0  0  0  0  0  0
  1  2  2  0  0  0
  1  3  1  0  0  0
  1  4  1  0  0  0
  1 23  1  0  0  0
  4  5  1  0  0  0
  5  6  1  0  0  0
  5 49  1  0  0  0
  5 50  1  0  0  0
  6  7  1  0  0  0
  6  8  1  0  0  0
  6 51  1  0  0  0
  7 12  1  0  0  0
  8  9  1  0  0  0
  8 10  1  0  0  0
  8 52  1  0  0  0
  9 53  1  0  0  0
 10 11  1  0  0  0
 10 12  1  0  0  0
 10 54  1  0  0  0
 11 45  1  0  0  0
 12 13  1  0  0  0
 12 55  1  0  0  0
 13 14  1  0  0  0
 13 22  1  0  0  0
 14 15  2  0  0  0
 14 56  1  0  0  0
 15 16  1  0  0  0
 15 76  1  0  0  0
 16 17  1  0  0  0
 16 22  2  0  0  0
 17 18  1  0  0  0
 17 19  2  0  0  0
 18 57  1  0  0  0
 18 58  1  0  0  0
 19 20  1  0  0  0
 20 21  2  0  0  0
 20 59  1  0  0  0
 21 22  1  0  0  0
 23 24  1  0  0  0
 24 25  2  0  0  0
 24 26  1  0  0  0
 24 27  1  0  0  0
 27 28  1  0  0  0
 28 29  1  0  0  0
 28 60  1  0  0  0
 28 61  1  0  0  0
 29 30  1  0  0  0
 29 31  1  0  0  0
 29 62  1  0  0  0
 30 35  1  0  0  0
 31 32  1  0  0  0
 31 33  1  0  0  0
 31 63  1  0  0  0
 32 64  1  0  0  0
 33 34  1  0  0  0
 33 35  1  0  0  0
 33 65  1  0  0  0
 34 66  1  0  0  0
 35 36  1  0  0  0
 35 67  1  0  0  0
 36 37  1  0  0  0
 36 44  1  0  0  0
 37 38  2  0  0  0
 37 68  1  0  0  0
 38 39  1  0  0  0
 38 42  1  0  0  0
 39 40  2  0  0  0
 39 41  1  0  0  0
 41 69  1  0  0  0
 41 70  1  0  0  0
 42 43  1  0  0  0
 42 71  1  0  0  0
 43 44  2  0  0  0
 43 72  1  0  0  0
 44 73  1  0  0  0
 45 46  2  0  0  0
 45 47  1  0  0  0
 45 48  1  0  0  0
 47 74  1  0  0  0
 48 75  1  0  0  0
M  CHG  2   3  -1  15   1
M  END
> <s_m_source_file>
/cbio/jclab/home/rustenburg/PFK/Epik-Ligands/Results/InProgress/NADP NICOTINAMIDE-ADENINE-DINUCLEOTIDE PHOSPHATE/pH_4.0/NADP NICOTINAMIDE-ADENINE-DINUCLEOTIDE PHOSPHATE_pH_4.0-before_epik.mol2

> <i_m_source_file_index>
1

> <r_epik_Ionization_Penalty>
  3.0397

> <r_epik_Ionization_Penalty_Charging>
  1.7951

> <r_epik_Ionization_Penalty_Neutral>
  1.2446

> <r_epik_State_Penalty>
  1.9452

> <r_epik_Charging_Adjusted_Penalty>
3.74030340474111

> <i_epik_Tot_Q>
0

> <i_epik_Tot_abs_Q>
2

> <s_epik_Chemistry_Notes>
This compound has an imine and may undergo hydrolysis. This compound contains an acetal/aminal-like group ( X-CH(R)-Y where X, Y are N, S, or O) that may be acid/base labile, releasing an aldehyde.

$$$$
NAP
                    3D
 Structure written by MMmdl.
 75 79  0  0  1  0            999 V2000
   17.1740   26.1340   12.0400 P   0  0  0  0  0  0
   16.0480   25.3140   12.5000 O   0  0  0  0  0  0
   18.4780   26.1140   12.6700 O   0  5  0  0  0  0
   17.3170   25.8890   10.4370 O   0  0  0  0  0  0
   17.8130   26.9900    9.4950 C   0  0  0  0  0  0
   17.9620   26.1550    8.3450 C   0  0  1  0  0  0
   17.8590   27.3510    7.2940 O   0  0  0  0  0  0
   18.8400   25.7890    7.5350 C   0  0  1  0  0  0
   18.2080   24.5970    7.8390 O   0  0  0  0  0  0
   19.2760   25.7510    6.1470 C   0  0  1  0  0  0
   18.8830   24.7390    5.4810 O   0  0  0  0  0  0
   18.3940   26.8940    5.9880 C   0  0  2  0  0  0
   19.2370   28.0900    5.5900 N   0  0  0  0  0  0
   20.4660   28.6370    6.0110 C   0  0  0  0  0  0
   20.9350   29.5480    5.1920 N   0  0  0  0  0  0
   20.0030   29.6240    4.1730 C   0  0  0  0  0  0
   19.9350   30.4020    2.9750 C   0  0  0  0  0  0
   20.8890   31.2620    2.6350 N   0  0  0  0  0  0
   18.8410   30.2300    2.1530 N   0  3  0  0  0  0
   17.8670   29.3500    2.4800 C   0  0  0  0  0  0
   17.8590   28.5740    3.5790 N   0  0  0  0  0  0
   18.9620   28.7580    4.3950 C   0  0  0  0  0  0
   16.4580   27.5660   12.2080 O   0  0  0  0  0  0
   15.2160   28.0680   13.1530 P   0  0  2  0  0  0
   13.9830   27.4170   12.6420 O   0  0  0  0  0  0
   15.3080   29.5540   13.0930 O   0  0  0  0  0  0
   15.4870   27.6580   14.6850 O   0  0  0  0  0  0
   16.5990   28.1690   15.4750 C   0  0  0  0  0  0
   17.3950   26.9680   16.0250 C   0  0  1  0  0  0
   18.6530   27.3660   16.6140 O   0  0  0  0  0  0
   16.6940   26.1930   17.1670 C   0  0  1  0  0  0
   17.0850   24.8060   17.2870 O   0  0  0  0  0  0
   17.0930   26.9360   18.3930 C   0  0  1  0  0  0
   16.9790   26.2050   19.5880 O   0  0  0  0  0  0
   18.5690   27.2430   18.0380 C   0  0  2  0  0  0
   19.1250   28.3610   18.8110 N   0  0  0  0  0  0
   18.5550   29.6410   18.6670 C   0  0  0  0  0  0
   19.1410   30.6830   19.4650 C   0  0  0  0  0  0
   18.6520   32.0500   19.4140 C   0  0  0  0  0  0
   19.1610   32.9430   20.1020 O   0  0  0  0  0  0
   17.6220   32.3900   18.6160 N   0  0  0  0  0  0
   20.2220   30.3760   20.3170 C   0  0  0  0  0  0
   20.7460   29.1390   20.4350 C   0  0  0  0  0  0
   20.2020   28.1290   19.6810 C   0  0  0  0  0  0
   19.6640   24.5550    4.0970 P   0  0  0  0  0  0
   21.1170   24.3600    4.4040 O   0  0  0  0  0  0
   18.9640   23.4100    3.5430 O   0  5  0  0  0  0
   19.3910   25.7980    3.3810 O   0  0  0  0  0  0
   17.0483   27.7767    9.4157 H   0  0  0  0  0  0
   18.7432   27.4217    9.8931 H   0  0  0  0  0  0
   17.6025   25.1989    8.7533 H   0  0  0  0  0  0
   19.6806   26.4653    7.7495 H   0  0  0  0  0  0
   17.8041   24.4305    8.8485 H   0  0  0  0  0  0
   20.3163   25.6482    5.8047 H   0  0  0  0  0  0
   17.6138   26.5596    5.2884 H   0  0  0  0  0  0
   21.0250   28.3690    6.9230 H   0  0  0  0  0  0
   21.7626   31.4011    3.2888 H   0  0  0  0  0  0
   20.8052   31.8349    1.6997 H   0  0  0  0  0  0
   17.0080   29.2570    1.7930 H   0  0  0  0  0  0
   17.2459   28.7905   14.8384 H   0  0  0  0  0  0
   16.2101   28.7760   16.3059 H   0  0  0  0  0  0
   17.5751   26.3471   15.1351 H   0  0  0  0  0  0
   15.6083   26.0976   17.0184 H   0  0  0  0  0  0
   16.8698   24.1013   16.4703 H   0  0  0  0  0  0
   16.4146   27.7581   18.6649 H   0  0  0  0  0  0
   15.9863   25.9158   19.9633 H   0  0  0  0  0  0
   19.2830   26.4453   18.2908 H   0  0  0  0  0  0
   17.7135   29.8692   17.9964 H   0  0  0  0  0  0
   17.1389   31.6280   17.9867 H   0  0  0  0  0  0
   17.2637   33.4298   18.5934 H   0  0  0  0  0  0
   20.6910   31.1590   20.9350 H   0  0  0  0  0  0
   21.5866   28.9281   21.1124 H   0  0  0  0  0  0
   20.6099   27.1098   19.7506 H   0  0  0  0  0  0
   19.8643   26.7359    3.7071 H   0  0  0  0  0  0
   18.7552   30.8108    1.2228 H   0  0  0  0  0  0
  1  2  2  0  0  0
  1  3  1  0  0  0
  1  4  1  0  0  0
  1 23  1  0  0  0
  4  5  1  0  0  0
  5  6  1  0  0  0
  5 49  1  0  0  0
  5 50  1  0  0  0
  6  7  1  0  0  0
  6  8  1  0  0  0
  6 51  1  0  0  0
  7 12  1  0  0  0
  8  9  1  0  0  0
  8 10  1  0  0  0
  8 52  1  0  0  0
  9 53  1  0  0  0
 10 11  1  0  0  0
 10 12  1  0  0  0
 10 54  1  0  0  0
 11 45  1  0  0  0
 12 13  1  0  0  0
 12 55  1  0  0  0
 13 14  1  0  0  0
 13 22  1  0  0  0
 14 15  2  0  0  0
 14 56  1  0  0  0
 15 16  1  0  0  0
 16 17  1  0  0  0
 16 22  2  0  0  0
 17 18  1  0  0  0
 17 19  2  0  0  0
 18 57  1  0  0  0
 18 58  1  0  0  0
 19 20  1  0  0  0
 19 75  1  0  0  0
 20 21  2  0  0  0
 20 59  1  0  0  0
 21 22  1  0  0  0
 23 24  1  0  0  0
 24 25  2  0  0  0
 24 26  1  0  0  0
 24 27  1  0  0  0
 27 28  1  0  0  0
 28 29  1  0  0  0
 28 60  1  0  0  0
 28 61  1  0  0  0
 29 30  1  0  0  0
 29 31  1  0  0  0
 29 62  1  0  0  0
 30 35  1  0  0  0
 31 32  1  0  0  0
 31 33  1  0  0  0
 31 63  1  0  0  0
 32 64  1  0  0  0
 33 34  1  0  0  0
 33 35  1  0  0  0
 33 65  1  0  0  0
 34 66  1  0  0  0
 35 36  1  0  0  0
 35 67  1  0  0  0
 36 37  1  0  0  0
 36 44  1  0  0  0
 37 38  2  0  0  0
 37 68  1  0  0  0
 38 39  1  0  0  0
 38 42  1  0  0  0
 39 40  2  0  0  0
 39 41  1  0  0  0
 41 69  1  0  0  0
 41 70  1  0  0  0
 42 43  1  0  0  0
 42 71  1  0  0  0
 43 44  2  0  0  0
 43 72  1  0  0  0
 44 73  1  0  0  0
 45 46  2  0  0  0
 45 47  1  0  0  0
 45 48  1  0  0  0
 48 74  1  0  0  0
M  CHG  3   3  -1  19   1  47  -1
M  END
> <s_m_source_file>
/cbio/jclab/home/rustenburg/PFK/Epik-Ligands/Results/InProgress/NADP NICOTINAMIDE-ADENINE-DINUCLEOTIDE PHOSPHATE/pH_4.0/NADP NICOTINAMIDE-ADENINE-DINUCLEOTIDE PHOSPHATE_pH_4.0-before_epik.mol2

> <i_m_source_file_index>
1

> <r_epik_Ionization_Penalty>
  0.6111

> <r_epik_Ionization_Penalty_Charging>
  0.6000

> <r_epik_Ionization_Penalty_Neutral>
  0.0111

> <r_epik_State_Penalty>
  2.0431

> <r_epik_Charging_Adjusted_Penalty>
2.64310390714022

> <i_epik_Tot_Q>
-1

> <i_epik_Tot_abs_Q>
3

> <s_epik_Chemistry_Notes>
This compound has an imine and may undergo hydrolysis. This compound contains an acetal/aminal-like group ( X-CH(R)-Y where X, Y are N, S, or O) that may be acid/base labile, releasing an aldehyde.

$$$$
NAP
                    3D
 Structure written by MMmdl.
 75 79  0  0  1  0            999 V2000
   17.1740   26.1340   12.0400 P   0  0  1  0  0  0
   16.0480   25.3140   12.5000 O   0  0  0  0  0  0
   18.4780   26.1140   12.6700 O   0  0  0  0  0  0
   17.3170   25.8890   10.4370 O   0  0  0  0  0  0
   17.8130   26.9900    9.4950 C   0  0  0  0  0  0
   17.9620   26.1550    8.3450 C   0  0  1  0  0  0
   17.8590   27.3510    7.2940 O   0  0  0  0  0  0
   18.8400   25.7890    7.5350 C   0  0  1  0  0  0
   18.2080   24.5970    7.8390 O   0  0  0  0  0  0
   19.2760   25.7510    6.1470 C   0  0  1  0  0  0
   18.8830   24.7390    5.4810 O   0  0  0  0  0  0
   18.3940   26.8940    5.9880 C   0  0  2  0  0  0
   19.2370   28.0900    5.5900 N   0  0  0  0  0  0
   20.4660   28.6370    6.0110 C   0  0  0  0  0  0
   20.9350   29.5480    5.1920 N   0  0  0  0  0  0
   20.0030   29.6240    4.1730 C   0  0  0  0  0  0
   19.9350   30.4020    2.9750 C   0  0  0  0  0  0
   20.8890   31.2620    2.6350 N   0  0  0  0  0  0
   18.8410   30.2300    2.1530 N   0  0  0  0  0  0
   17.8670   29.3500    2.4800 C   0  0  0  0  0  0
   17.8590   28.5740    3.5790 N   0  0  0  0  0  0
   18.9620   28.7580    4.3950 C   0  0  0  0  0  0
   16.4580   27.5660   12.2080 O   0  0  0  0  0  0
   15.2160   28.0680   13.1530 P   0  0  2  0  0  0
   13.9830   27.4170   12.6420 O   0  0  0  0  0  0
   15.3080   29.5540   13.0930 O   0  0  0  0  0  0
   15.4870   27.6580   14.6850 O   0  0  0  0  0  0
   16.5990   28.1690   15.4750 C   0  0  0  0  0  0
   17.3950   26.9680   16.0250 C   0  0  1  0  0  0
   18.6530   27.3660   16.6140 O   0  0  0  0  0  0
   16.6940   26.1930   17.1670 C   0  0  1  0  0  0
   17.0850   24.8060   17.2870 O   0  0  0  0  0  0
   17.0930   26.9360   18.3930 C   0  0  1  0  0  0
   16.9790   26.2050   19.5880 O   0  0  0  0  0  0
   18.5690   27.2430   18.0380 C   0  0  2  0  0  0
   19.1250   28.3610   18.8110 N   0  0  0  0  0  0
   18.5550   29.6410   18.6670 C   0  0  0  0  0  0
   19.1410   30.6830   19.4650 C   0  0  0  0  0  0
   18.6520   32.0500   19.4140 C   0  0  0  0  0  0
   19.1610   32.9430   20.1020 O   0  0  0  0  0  0
   17.6220   32.3900   18.6160 N   0  0  0  0  0  0
   20.2220   30.3760   20.3170 C   0  0  0  0  0  0
   20.7460   29.1390   20.4350 C   0  0  0  0  0  0
   20.2020   28.1290   19.6810 C   0  0  0  0  0  0
   19.6640   24.5550    4.0970 P   0  0  0  0  0  0
   21.1170   24.3600    4.4040 O   0  0  0  0  0  0
   18.9640   23.4100    3.5430 O   0  5  0  0  0  0
   19.3910   25.7980    3.3810 O   0  0  0  0  0  0
   19.0900   25.2005   12.6387 H   0  0  0  0  0  0
   17.0483   27.7767    9.4157 H   0  0  0  0  0  0
   18.7432   27.4217    9.8931 H   0  0  0  0  0  0
   17.6025   25.1989    8.7533 H   0  0  0  0  0  0
   19.6806   26.4653    7.7495 H   0  0  0  0  0  0
   17.8041   24.4305    8.8485 H   0  0  0  0  0  0
   20.3163   25.6482    5.8047 H   0  0  0  0  0  0
   17.6138   26.5596    5.2884 H   0  0  0  0  0  0
   21.0250   28.3690    6.9230 H   0  0  0  0  0  0
   21.7626   31.4011    3.2888 H   0  0  0  0  0  0
   20.8052   31.8349    1.6997 H   0  0  0  0  0  0
   17.0080   29.2570    1.7930 H   0  0  0  0  0  0
   17.2459   28.7905   14.8384 H   0  0  0  0  0  0
   16.2101   28.7760   16.3059 H   0  0  0  0  0  0
   17.5751   26.3471   15.1351 H   0  0  0  0  0  0
   15.6083   26.0976   17.0184 H   0  0  0  0  0  0
   16.8698   24.1013   16.4703 H   0  0  0  0  0  0
   16.4146   27.7581   18.6649 H   0  0  0  0  0  0
   15.9863   25.9158   19.9633 H   0  0  0  0  0  0
   19.2830   26.4453   18.2908 H   0  0  0  0  0  0
   17.7135   29.8692   17.9964 H   0  0  0  0  0  0
   17.1389   31.6280   17.9867 H   0  0  0  0  0  0
   17.2637   33.4298   18.5934 H   0  0  0  0  0  0
   20.6910   31.1590   20.9350 H   0  0  0  0  0  0
   21.5866   28.9281   21.1124 H   0  0  0  0  0  0
   20.6099   27.1098   19.7506 H   0  0  0  0  0  0
   19.8643   26.7359    3.7071 H   0  0  0  0  0  0
  1  2  2  0  0  0
  1  3  1  0  0  0
  1  4  1  0  0  0
  1 23  1  0  0  0
  3 49  1  0  0  0
  4  5  1  0  0  0
  5  6  1  0  0  0
  5 50  1  0  0  0
  5 51  1  0  0  0
  6  7  1  0  0  0
  6  8  1  0  0  0
  6 52  1  0  0  0
  7 12  1  0  0  0
  8  9  1  0  0  0
  8 10  1  0  0  0
  8 53  1  0  0  0
  9 54  1  0  0  0
 10 11  1  0  0  0
 10 12  1  0  0  0
 10 55  1  0  0  0
 11 45  1  0  0  0
 12 13  1  0  0  0
 12 56  1  0  0  0
 13 14  1  0  0  0
 13 22  1  0  0  0
 14 15  2  0  0  0
 14 57  1  0  0  0
 15 16  1  0  0  0
 16 17  1  0  0  0
 16 22  2  0  0  0
 17 18  1  0  0  0
 17 19  2  0  0  0
 18 58  1  0  0  0
 18 59  1  0  0  0
 19 20  1  0  0  0
 20 21  2  0  0  0
 20 60  1  0  0  0
 21 22  1  0  0  0
 23 24  1  0  0  0
 24 25  2  0  0  0
 24 26  1  0  0  0
 24 27  1  0  0  0
 27 28  1  0  0  0
 28 29  1  0  0  0
 28 61  1  0  0  0
 28 62  1  0  0  0
 29 30  1  0  0  0
 29 31  1  0  0  0
 29 63  1  0  0  0
 30 35  1  0  0  0
 31 32  1  0  0  0
 31 33  1  0  0  0
 31 64  1  0  0  0
 32 65  1  0  0  0
 33 34  1  0  0  0
 33 35  1  0  0  0
 33 66  1  0  0  0
 34 67  1  0  0  0
 35 36  1  0  0  0
 35 68  1  0  0  0
 36 37  1  0  0  0
 36 44  1  0  0  0
 37 38  2  0  0  0
 37 69  1  0  0  0
 38 39  1  0  0  0
 38 42  1  0  0  0
 39 40  2  0  0  0
 39 41  1  0  0  0
 41 70  1  0  0  0
 41 71  1  0  0  0
 42 43  1  0  0  0
 42 72  1  0  0  0
 43 44  2  0  0  0
 43 73  1  0  0  0
 44 74  1  0  0  0
 45 46  2  0  0  0
 45 47  1  0  0  0
 45 48  1  0  0  0
 48 75  1  0  0  0
M  CHG  1  47  -1
M  END
> <s_m_source_file>
/cbio/jclab/home/rustenburg/PFK/Epik-Ligands/Results/InProgress/NADP NICOTINAMIDE-ADENINE-DINUCLEOTIDE PHOSPHATE/pH_4.0/NADP NICOTINAMIDE-ADENINE-DINUCLEOTIDE PHOSPHATE_pH_4.0-before_epik.mol2

> <i_m_source_file_index>
1

> <r_epik_Ionization_Penalty>
  1.8627

> <r_epik_Ionization_Penalty_Charging>
  0.0826

> <r_epik_Ionization_Penalty_Neutral>
  1.7800

> <r_epik_State_Penalty>
  2.0578

> <r_epik_Charging_Adjusted_Penalty>
2.14040797402485

> <i_epik_Tot_Q>
-1

> <i_epik_Tot_abs_Q>
1

> <s_epik_Chemistry_Notes>
This compound has an imine and may undergo hydrolysis. This compound contains an acetal/aminal-like group ( X-CH(R)-Y where X, Y are N, S, or O) that may be acid/base labile, releasing an aldehyde.

$$$$
NAP
                    3D
 Structure written by MMmdl.
 76 80  0  0  1  0            999 V2000
   17.1740   26.1340   12.0400 P   0  0  1  0  0  0
   16.0480   25.3140   12.5000 O   0  0  0  0  0  0
   18.4780   26.1140   12.6700 O   0  0  0  0  0  0
   17.3170   25.8890   10.4370 O   0  0  0  0  0  0
   17.8130   26.9900    9.4950 C   0  0  0  0  0  0
   17.9620   26.1550    8.3450 C   0  0  1  0  0  0
   17.8590   27.3510    7.2940 O   0  0  0  0  0  0
   18.8400   25.7890    7.5350 C   0  0  1  0  0  0
   18.2080   24.5970    7.8390 O   0  0  0  0  0  0
   19.2760   25.7510    6.1470 C   0  0  1  0  0  0
   18.8830   24.7390    5.4810 O   0  0  0  0  0  0
   18.3940   26.8940    5.9880 C   0  0  2  0  0  0
   19.2370   28.0900    5.5900 N   0  0  0  0  0  0
   20.4660   28.6370    6.0110 C   0  0  0  0  0  0
   20.9350   29.5480    5.1920 N   0  3  0  0  0  0
   20.0030   29.6240    4.1730 C   0  0  0  0  0  0
   19.9350   30.4020    2.9750 C   0  0  0  0  0  0
   20.8890   31.2620    2.6350 N   0  0  0  0  0  0
   18.8410   30.2300    2.1530 N   0  0  0  0  0  0
   17.8670   29.3500    2.4800 C   0  0  0  0  0  0
   17.8590   28.5740    3.5790 N   0  0  0  0  0  0
   18.9620   28.7580    4.3950 C   0  0  0  0  0  0
   16.4580   27.5660   12.2080 O   0  0  0  0  0  0
   15.2160   28.0680   13.1530 P   0  0  2  0  0  0
   13.9830   27.4170   12.6420 O   0  0  0  0  0  0
   15.3080   29.5540   13.0930 O   0  0  0  0  0  0
   15.4870   27.6580   14.6850 O   0  0  0  0  0  0
   16.5990   28.1690   15.4750 C   0  0  0  0  0  0
   17.3950   26.9680   16.0250 C   0  0  1  0  0  0
   18.6530   27.3660   16.6140 O   0  0  0  0  0  0
   16.6940   26.1930   17.1670 C   0  0  1  0  0  0
   17.0850   24.8060   17.2870 O   0  0  0  0  0  0
   17.0930   26.9360   18.3930 C   0  0  1  0  0  0
   16.9790   26.2050   19.5880 O   0  0  0  0  0  0
   18.5690   27.2430   18.0380 C   0  0  2  0  0  0
   19.1250   28.3610   18.8110 N   0  0  0  0  0  0
   18.5550   29.6410   18.6670 C   0  0  0  0  0  0
   19.1410   30.6830   19.4650 C   0  0  0  0  0  0
   18.6520   32.0500   19.4140 C   0  0  0  0  0  0
   19.1610   32.9430   20.1020 O   0  0  0  0  0  0
   17.6220   32.3900   18.6160 N   0  0  0  0  0  0
   20.2220   30.3760   20.3170 C   0  0  0  0  0  0
   20.7460   29.1390   20.4350 C   0  0  0  0  0  0
   20.2020   28.1290   19.6810 C   0  0  0  0  0  0
   19.6640   24.5550    4.0970 P   0  0  0  0  0  0
   21.1170   24.3600    4.4040 O   0  0  0  0  0  0
   18.9640   23.4100    3.5430 O   0  5  0  0  0  0
   19.3910   25.7980    3.3810 O   0  0  0  0  0  0
   19.0900   25.2005   12.6387 H   0  0  0  0  0  0
   17.0483   27.7767    9.4157 H   0  0  0  0  0  0
   18.7432   27.4217    9.8931 H   0  0  0  0  0  0
   17.6025   25.1989    8.7533 H   0  0  0  0  0  0
   19.6806   26.4653    7.7495 H   0  0  0  0  0  0
   17.8041   24.4305    8.8485 H   0  0  0  0  0  0
   20.3163   25.6482    5.8047 H   0  0  0  0  0  0
   17.6138   26.5596    5.2884 H   0  0  0  0  0  0
   21.0250   28.3690    6.9230 H   0  0  0  0  0  0
   21.7626   31.4011    3.2888 H   0  0  0  0  0  0
   20.8052   31.8349    1.6997 H   0  0  0  0  0  0
   17.0080   29.2570    1.7930 H   0  0  0  0  0  0
   17.2459   28.7905   14.8384 H   0  0  0  0  0  0
   16.2101   28.7760   16.3059 H   0  0  0  0  0  0
   17.5751   26.3471   15.1351 H   0  0  0  0  0  0
   15.6083   26.0976   17.0184 H   0  0  0  0  0  0
   16.8698   24.1013   16.4703 H   0  0  0  0  0  0
   16.4146   27.7581   18.6649 H   0  0  0  0  0  0
   15.9863   25.9158   19.9633 H   0  0  0  0  0  0
   19.2830   26.4453   18.2908 H   0  0  0  0  0  0
   17.7135   29.8692   17.9964 H   0  0  0  0  0  0
   17.1389   31.6280   17.9867 H   0  0  0  0  0  0
   17.2637   33.4298   18.5934 H   0  0  0  0  0  0
   20.6910   31.1590   20.9350 H   0  0  0  0  0  0
   21.5866   28.9281   21.1124 H   0  0  0  0  0  0
   20.6099   27.1098   19.7506 H   0  0  0  0  0  0
   19.8643   26.7359    3.7071 H   0  0  0  0  0  0
   21.8866   30.0519    5.4166 H   0  0  0  0  0  0
  1  2  2  0  0  0
  1  3  1  0  0  0
  1  4  1  0  0  0
  1 23  1  0  0  0
  3 49  1  0  0  0
  4  5  1  0  0  0
  5  6  1  0  0  0
  5 50  1  0  0  0
  5 51  1  0  0  0
  6  7  1  0  0  0
  6  8  1  0  0  0
  6 52  1  0  0  0
  7 12  1  0  0  0
  8  9  1  0  0  0
  8 10  1  0  0  0
  8 53  1  0  0  0
  9 54  1  0  0  0
 10 11  1  0  0  0
 10 12  1  0  0  0
 10 55  1  0  0  0
 11 45  1  0  0  0
 12 13  1  0  0  0
 12 56  1  0  0  0
 13 14  1  0  0  0
 13 22  1  0  0  0
 14 15  2  0  0  0
 14 57  1  0  0  0
 15 16  1  0  0  0
 15 76  1  0  0  0
 16 17  1  0  0  0
 16 22  2  0  0  0
 17 18  1  0  0  0
 17 19  2  0  0  0
 18 58  1  0  0  0
 18 59  1  0  0  0
 19 20  1  0  0  0
 20 21  2  0  0  0
 20 60  1  0  0  0
 21 22  1  0  0  0
 23 24  1  0  0  0
 24 25  2  0  0  0
 24 26  1  0  0  0
 24 27  1  0  0  0
 27 28  1  0  0  0
 28 29  1  0  0  0
 28 61  1  0  0  0
 28 62  1  0  0  0
 29 30  1  0  0  0
 29 31  1  0  0  0
 29 63  1  0  0  0
 30 35  1  0  0  0
 31 32  1  0  0  0
 31 33  1  0  0  0
 31 64  1  0  0  0
 32 65  1  0  0  0
 33 34  1  0  0  0
 33 35  1  0  0  0
 33 66  1  0  0  0
 34 67  1  0  0  0
 35 36  1  0  0  0
 35 68  1  0  0  0
 36 37  1  0  0  0
 36 44  1  0  0  0
 37 38  2  0  0  0
 37 69  1  0  0  0
 38 39  1  0  0  0
 38 42  1  0  0  0
 39 40  2  0  0  0
 39 41  1  0  0  0
 41 70  1  0  0  0
 41 71  1  0  0  0
 42 43  1  0  0  0
 42 72  1  0  0  0
 43 44  2  0  0  0
 43 73  1  0  0  0
 44 74  1  0  0  0
 45 46  2  0  0  0
 45 47  1  0  0  0
 45 48  1  0  0  0
 48 75  1  0  0  0
M  CHG  2  15   1  47  -1
M  END
> <s_m_source_file>
/cbio/jclab/home/rustenburg/PFK/Epik-Ligands/Results/InProgress/NADP NICOTINAMIDE-ADENINE-DINUCLEOTIDE PHOSPHATE/pH_4.0/NADP NICOTINAMIDE-ADENINE-DINUCLEOTIDE PHOSPHATE_pH_4.0-before_epik.mol2

> <i_m_source_file_index>
1

> <r_epik_Ionization_Penalty>
  3.1792

> <r_epik_Ionization_Penalty_Charging>
  1.7858

> <r_epik_Ionization_Penalty_Neutral>
  1.3935

> <r_epik_State_Penalty>
  2.3589

> <r_epik_Charging_Adjusted_Penalty>
4.14470034380292

> <i_epik_Tot_Q>
0

> <i_epik_Tot_abs_Q>
2

> <s_epik_Chemistry_Notes>
This compound has an imine and may undergo hydrolysis. This compound contains an acetal/aminal-like group ( X-CH(R)-Y where X, Y are N, S, or O) that may be acid/base labile, releasing an aldehyde.

$$$$
NAP
                    3D
 Structure written by MMmdl.
 76 80  0  0  1  0            999 V2000
   17.1740   26.1340   12.0400 P   0  0  1  0  0  0
   16.0480   25.3140   12.5000 O   0  0  0  0  0  0
   18.4780   26.1140   12.6700 O   0  0  0  0  0  0
   17.3170   25.8890   10.4370 O   0  0  0  0  0  0
   17.8130   26.9900    9.4950 C   0  0  0  0  0  0
   17.9620   26.1550    8.3450 C   0  0  1  0  0  0
   17.8590   27.3510    7.2940 O   0  0  0  0  0  0
   18.8400   25.7890    7.5350 C   0  0  1  0  0  0
   18.2080   24.5970    7.8390 O   0  0  0  0  0  0
   19.2760   25.7510    6.1470 C   0  0  1  0  0  0
   18.8830   24.7390    5.4810 O   0  0  0  0  0  0
   18.3940   26.8940    5.9880 C   0  0  2  0  0  0
   19.2370   28.0900    5.5900 N   0  0  0  0  0  0
   20.4660   28.6370    6.0110 C   0  0  0  0  0  0
   20.9350   29.5480    5.1920 N   0  0  0  0  0  0
   20.0030   29.6240    4.1730 C   0  0  0  0  0  0
   19.9350   30.4020    2.9750 C   0  0  0  0  0  0
   20.8890   31.2620    2.6350 N   0  0  0  0  0  0
   18.8410   30.2300    2.1530 N   0  0  0  0  0  0
   17.8670   29.3500    2.4800 C   0  0  0  0  0  0
   17.8590   28.5740    3.5790 N   0  0  0  0  0  0
   18.9620   28.7580    4.3950 C   0  0  0  0  0  0
   16.4580   27.5660   12.2080 O   0  0  0  0  0  0
   15.2160   28.0680   13.1530 P   0  0  2  0  0  0
   13.9830   27.4170   12.6420 O   0  0  0  0  0  0
   15.3080   29.5540   13.0930 O   0  0  0  0  0  0
   15.4870   27.6580   14.6850 O   0  0  0  0  0  0
   16.5990   28.1690   15.4750 C   0  0  0  0  0  0
   17.3950   26.9680   16.0250 C   0  0  1  0  0  0
   18.6530   27.3660   16.6140 O   0  0  0  0  0  0
   16.6940   26.1930   17.1670 C   0  0  1  0  0  0
   17.0850   24.8060   17.2870 O   0  0  0  0  0  0
   17.0930   26.9360   18.3930 C   0  0  1  0  0  0
   16.9790   26.2050   19.5880 O   0  0  0  0  0  0
   18.5690   27.2430   18.0380 C   0  0  2  0  0  0
   19.1250   28.3610   18.8110 N   0  0  0  0  0  0
   18.5550   29.6410   18.6670 C   0  0  0  0  0  0
   19.1410   30.6830   19.4650 C   0  0  0  0  0  0
   18.6520   32.0500   19.4140 C   0  0  0  0  0  0
   19.1610   32.9430   20.1020 O   0  0  0  0  0  0
   17.6220   32.3900   18.6160 N   0  0  0  0  0  0
   20.2220   30.3760   20.3170 C   0  0  0  0  0  0
   20.7460   29.1390   20.4350 C   0  0  0  0  0  0
   20.2020   28.1290   19.6810 C   0  0  0  0  0  0
   19.6640   24.5550    4.0970 P   0  0  0  0  0  0
   21.1170   24.3600    4.4040 O   0  0  0  0  0  0
   18.9640   23.4100    3.5430 O   0  0  0  0  0  0
   19.3910   25.7980    3.3810 O   0  0  0  0  0  0
   19.0900   25.2005   12.6387 H   0  0  0  0  0  0
   17.0483   27.7767    9.4157 H   0  0  0  0  0  0
   18.7432   27.4217    9.8931 H   0  0  0  0  0  0
   17.6025   25.1989    8.7533 H   0  0  0  0  0  0
   19.6806   26.4653    7.7495 H   0  0  0  0  0  0
   17.8041   24.4305    8.8485 H   0  0  0  0  0  0
   20.3163   25.6482    5.8047 H   0  0  0  0  0  0
   17.6138   26.5596    5.2884 H   0  0  0  0  0  0
   21.0250   28.3690    6.9230 H   0  0  0  0  0  0
   21.7626   31.4011    3.2888 H   0  0  0  0  0  0
   20.8052   31.8349    1.6997 H   0  0  0  0  0  0
   17.0080   29.2570    1.7930 H   0  0  0  0  0  0
   17.2459   28.7905   14.8384 H   0  0  0  0  0  0
   16.2101   28.7760   16.3059 H   0  0  0  0  0  0
   17.5751   26.3471   15.1351 H   0  0  0  0  0  0
   15.6083   26.0976   17.0184 H   0  0  0  0  0  0
   16.8698   24.1013   16.4703 H   0  0  0  0  0  0
   16.4146   27.7581   18.6649 H   0  0  0  0  0  0
   15.9863   25.9158   19.9633 H   0  0  0  0  0  0
   19.2830   26.4453   18.2908 H   0  0  0  0  0  0
   17.7135   29.8692   17.9964 H   0  0  0  0  0  0
   17.1389   31.6280   17.9867 H   0  0  0  0  0  0
   17.2637   33.4298   18.5934 H   0  0  0  0  0  0
   20.6910   31.1590   20.9350 H   0  0  0  0  0  0
   21.5866   28.9281   21.1124 H   0  0  0  0  0  0
   20.6099   27.1098   19.7506 H   0  0  0  0  0  0
   19.0895   22.4161    3.9972 H   0  0  0  0  0  0
   19.8643   26.7359    3.7071 H   0  0  0  0  0  0
  1  2  2  0  0  0
  1  3  1  0  0  0
  1  4  1  0  0  0
  1 23  1  0  0  0
  3 49  1  0  0  0
  4  5  1  0  0  0
  5  6  1  0  0  0
  5 50  1  0  0  0
  5 51  1  0  0  0
  6  7  1  0  0  0
  6  8  1  0  0  0
  6 52  1  0  0  0
  7 12  1  0  0  0
  8  9  1  0  0  0
  8 10  1  0  0  0
  8 53  1  0  0  0
  9 54  1  0  0  0
 10 11  1  0  0  0
 10 12  1  0  0  0
 10 55  1  0  0  0
 11 45  1  0  0  0
 12 13  1  0  0  0
 12 56  1  0  0  0
 13 14  1  0  0  0
 13 22  1  0  0  0
 14 15  2  0  0  0
 14 57  1  0  0  0
 15 16  1  0  0  0
 16 17  1  0  0  0
 16 22  2  0  0  0
 17 18  1  0  0  0
 17 19  2  0  0  0
 18 58  1  0  0  0
 18 59  1  0  0  0
 19 20  1  0  0  0
 20 21  2  0  0  0
 20 60  1  0  0  0
 21 22  1  0  0  0
 23 24  1  0  0  0
 24 25  2  0  0  0
 24 26  1  0  0  0
 24 27  1  0  0  0
 27 28  1  0  0  0
 28 29  1  0  0  0
 28 61  1  0  0  0
 28 62  1  0  0  0
 29 30  1  0  0  0
 29 31  1  0  0  0
 29 63  1  0  0  0
 30 35  1  0  0  0
 31 32  1  0  0  0
 31 33  1  0  0  0
 31 64  1  0  0  0
 32 65  1  0  0  0
 33 34  1  0  0  0
 33 35  1  0  0  0
 33 66  1  0  0  0
 34 67  1  0  0  0
 35 36  1  0  0  0
 35 68  1  0  0  0
 36 37  1  0  0  0
 36 44  1  0  0  0
 37 38  2  0  0  0
 37 69  1  0  0  0
 38 39  1  0  0  0
 38 42  1  0  0  0
 39 40  2  0  0  0
 39 41  1  0  0  0
 41 70  1  0  0  0
 41 71  1  0  0  0
 42 43  1  0  0  0
 42 72  1  0  0  0
 43 44  2  0  0  0
 43 73  1  0  0  0
 44 74  1  0  0  0
 45 46  2  0  0  0
 45 47  1  0  0  0
 45 48  1  0  0  0
 47 75  1  0  0  0
 48 76  1  0  0  0
M  END
> <s_m_source_file>
/cbio/jclab/home/rustenburg/PFK/Epik-Ligands/Results/InProgress/NADP NICOTINAMIDE-ADENINE-DINUCLEOTIDE PHOSPHATE/pH_4.0/NADP NICOTINAMIDE-ADENINE-DINUCLEOTIDE PHOSPHATE_pH_4.0-before_epik.mol2

> <i_m_source_file_index>
1

> <r_epik_Ionization_Penalty>
  2.9716

> <r_epik_Ionization_Penalty_Charging>
  0.0000

> <r_epik_Ionization_Penalty_Neutral>
  2.9716

> <r_epik_State_Penalty>
  3.3934

> <r_epik_Charging_Adjusted_Penalty>
3.39342234583873

> <i_epik_Tot_Q>
0

> <i_epik_Tot_abs_Q>
0

> <s_epik_Chemistry_Notes>
This compound has an imine and may undergo hydrolysis. This compound contains an acetal/aminal-like group ( X-CH(R)-Y where X, Y are N, S, or O) that may be acid/base labile, releasing an aldehyde.

$$$$
NAP
                    3D
 Structure written by MMmdl.
 76 80  0  0  1  0            999 V2000
   17.1740   26.1340   12.0400 P   0  0  0  0  0  0
   16.0480   25.3140   12.5000 O   0  0  0  0  0  0
   18.4780   26.1140   12.6700 O   0  5  0  0  0  0
   17.3170   25.8890   10.4370 O   0  0  0  0  0  0
   17.8130   26.9900    9.4950 C   0  0  0  0  0  0
   17.9620   26.1550    8.3450 C   0  0  1  0  0  0
   17.8590   27.3510    7.2940 O   0  0  0  0  0  0
   18.8400   25.7890    7.5350 C   0  0  1  0  0  0
   18.2080   24.5970    7.8390 O   0  0  0  0  0  0
   19.2760   25.7510    6.1470 C   0  0  1  0  0  0
   18.8830   24.7390    5.4810 O   0  0  0  0  0  0
   18.3940   26.8940    5.9880 C   0  0  2  0  0  0
   19.2370   28.0900    5.5900 N   0  0  0  0  0  0
   20.4660   28.6370    6.0110 C   0  0  0  0  0  0
   20.9350   29.5480    5.1920 N   0  0  0  0  0  0
   20.0030   29.6240    4.1730 C   0  0  0  0  0  0
   19.9350   30.4020    2.9750 C   0  0  0  0  0  0
   20.8890   31.2620    2.6350 N   0  0  0  0  0  0
   18.8410   30.2300    2.1530 N   0  3  0  0  0  0
   17.8670   29.3500    2.4800 C   0  0  0  0  0  0
   17.8590   28.5740    3.5790 N   0  0  0  0  0  0
   18.9620   28.7580    4.3950 C   0  0  0  0  0  0
   16.4580   27.5660   12.2080 O   0  0  0  0  0  0
   15.2160   28.0680   13.1530 P   0  0  2  0  0  0
   13.9830   27.4170   12.6420 O   0  0  0  0  0  0
   15.3080   29.5540   13.0930 O   0  0  0  0  0  0
   15.4870   27.6580   14.6850 O   0  0  0  0  0  0
   16.5990   28.1690   15.4750 C   0  0  0  0  0  0
   17.3950   26.9680   16.0250 C   0  0  1  0  0  0
   18.6530   27.3660   16.6140 O   0  0  0  0  0  0
   16.6940   26.1930   17.1670 C   0  0  1  0  0  0
   17.0850   24.8060   17.2870 O   0  0  0  0  0  0
   17.0930   26.9360   18.3930 C   0  0  1  0  0  0
   16.9790   26.2050   19.5880 O   0  0  0  0  0  0
   18.5690   27.2430   18.0380 C   0  0  2  0  0  0
   19.1250   28.3610   18.8110 N   0  0  0  0  0  0
   18.5550   29.6410   18.6670 C   0  0  0  0  0  0
   19.1410   30.6830   19.4650 C   0  0  0  0  0  0
   18.6520   32.0500   19.4140 C   0  0  0  0  0  0
   19.1610   32.9430   20.1020 O   0  0  0  0  0  0
   17.6220   32.3900   18.6160 N   0  0  0  0  0  0
   20.2220   30.3760   20.3170 C   0  0  0  0  0  0
   20.7460   29.1390   20.4350 C   0  0  0  0  0  0
   20.2020   28.1290   19.6810 C   0  0  0  0  0  0
   19.6640   24.5550    4.0970 P   0  0  0  0  0  0
   21.1170   24.3600    4.4040 O   0  0  0  0  0  0
   18.9640   23.4100    3.5430 O   0  0  0  0  0  0
   19.3910   25.7980    3.3810 O   0  0  0  0  0  0
   17.0483   27.7767    9.4157 H   0  0  0  0  0  0
   18.7432   27.4217    9.8931 H   0  0  0  0  0  0
   17.6025   25.1989    8.7533 H   0  0  0  0  0  0
   19.6806   26.4653    7.7495 H   0  0  0  0  0  0
   17.8041   24.4305    8.8485 H   0  0  0  0  0  0
   20.3163   25.6482    5.8047 H   0  0  0  0  0  0
   17.6138   26.5596    5.2884 H   0  0  0  0  0  0
   21.0250   28.3690    6.9230 H   0  0  0  0  0  0
   21.7626   31.4011    3.2888 H   0  0  0  0  0  0
   20.8052   31.8349    1.6997 H   0  0  0  0  0  0
   17.0080   29.2570    1.7930 H   0  0  0  0  0  0
   17.2459   28.7905   14.8384 H   0  0  0  0  0  0
   16.2101   28.7760   16.3059 H   0  0  0  0  0  0
   17.5751   26.3471   15.1351 H   0  0  0  0  0  0
   15.6083   26.0976   17.0184 H   0  0  0  0  0  0
   16.8698   24.1013   16.4703 H   0  0  0  0  0  0
   16.4146   27.7581   18.6649 H   0  0  0  0  0  0
   15.9863   25.9158   19.9633 H   0  0  0  0  0  0
   19.2830   26.4453   18.2908 H   0  0  0  0  0  0
   17.7135   29.8692   17.9964 H   0  0  0  0  0  0
   17.1389   31.6280   17.9867 H   0  0  0  0  0  0
   17.2637   33.4298   18.5934 H   0  0  0  0  0  0
   20.6910   31.1590   20.9350 H   0  0  0  0  0  0
   21.5866   28.9281   21.1124 H   0  0  0  0  0  0
   20.6099   27.1098   19.7506 H   0  0  0  0  0  0
   19.0895   22.4161    3.9972 H   0  0  0  0  0  0
   19.8643   26.7359    3.7071 H   0  0  0  0  0  0
   18.7552   30.8108    1.2228 H   0  0  0  0  0  0
  1  2  2  0  0  0
  1  3  1  0  0  0
  1  4  1  0  0  0
  1 23  1  0  0  0
  4  5  1  0  0  0
  5  6  1  0  0  0
  5 49  1  0  0  0
  5 50  1  0  0  0
  6  7  1  0  0  0
  6  8  1  0  0  0
  6 51  1  0  0  0
  7 12  1  0  0  0
  8  9  1  0  0  0
  8 10  1  0  0  0
  8 52  1  0  0  0
  9 53  1  0  0  0
 10 11  1  0  0  0
 10 12  1  0  0  0
 10 54  1  0  0  0
 11 45  1  0  0  0
 12 13  1  0  0  0
 12 55  1  0  0  0
 13 14  1  0  0  0
 13 22  1  0  0  0
 14 15  2  0  0  0
 14 56  1  0  0  0
 15 16  1  0  0  0
 16 17  1  0  0  0
 16 22  2  0  0  0
 17 18  1  0  0  0
 17 19  2  0  0  0
 18 57  1  0  0  0
 18 58  1  0  0  0
 19 20  1  0  0  0
 19 76  1  0  0  0
 20 21  2  0  0  0
 20 59  1  0  0  0
 21 22  1  0  0  0
 23 24  1  0  0  0
 24 25  2  0  0  0
 24 26  1  0  0  0
 24 27  1  0  0  0
 27 28  1  0  0  0
 28 29  1  0  0  0
 28 60  1  0  0  0
 28 61  1  0  0  0
 29 30  1  0  0  0
 29 31  1  0  0  0
 29 62  1  0  0  0
 30 35  1  0  0  0
 31 32  1  0  0  0
 31 33  1  0  0  0
 31 63  1  0  0  0
 32 64  1  0  0  0
 33 34  1  0  0  0
 33 35  1  0  0  0
 33 65  1  0  0  0
 34 66  1  0  0  0
 35 36  1  0  0  0
 35 67  1  0  0  0
 36 37  1  0  0  0
 36 44  1  0  0  0
 37 38  2  0  0  0
 37 68  1  0  0  0
 38 39  1  0  0  0
 38 42  1  0  0  0
 39 40  2  0  0  0
 39 41  1  0  0  0
 41 69  1  0  0  0
 41 70  1  0  0  0
 42 43  1  0  0  0
 42 71  1  0  0  0
 43 44  2  0  0  0
 43 72  1  0  0  0
 44 73  1  0  0  0
 45 46  2  0  0  0
 45 47  1  0  0  0
 45 48  1  0  0  0
 47 74  1  0  0  0
 48 75  1  0  0  0
M  CHG  2   3  -1  19   1
M  END
> <s_m_source_file>
/cbio/jclab/home/rustenburg/PFK/Epik-Ligands/Results/InProgress/NADP NICOTINAMIDE-ADENINE-DINUCLEOTIDE PHOSPHATE/pH_4.0/NADP NICOTINAMIDE-ADENINE-DINUCLEOTIDE PHOSPHATE_pH_4.0-before_epik.mol2

> <i_m_source_file_index>
1

> <r_epik_Ionization_Penalty>
  1.7439

> <r_epik_Ionization_Penalty_Charging>
  0.5293

> <r_epik_Ionization_Penalty_Neutral>
  1.2146

> <r_epik_State_Penalty>
  3.4989

> <r_epik_Charging_Adjusted_Penalty>
4.02818312182317

> <i_epik_Tot_Q>
0

> <i_epik_Tot_abs_Q>
2

> <s_epik_Chemistry_Notes>
This compound has an imine and may undergo hydrolysis. This compound contains an acetal/aminal-like group ( X-CH(R)-Y where X, Y are N, S, or O) that may be acid/base labile, releasing an aldehyde.

$$$$
NAP
                    3D
 Structure written by MMmdl.
 76 80  0  0  1  0            999 V2000
   17.1740   26.1340   12.0400 P   0  0  1  0  0  0
   16.0480   25.3140   12.5000 O   0  0  0  0  0  0
   18.4780   26.1140   12.6700 O   0  0  0  0  0  0
   17.3170   25.8890   10.4370 O   0  0  0  0  0  0
   17.8130   26.9900    9.4950 C   0  0  0  0  0  0
   17.9620   26.1550    8.3450 C   0  0  1  0  0  0
   17.8590   27.3510    7.2940 O   0  0  0  0  0  0
   18.8400   25.7890    7.5350 C   0  0  1  0  0  0
   18.2080   24.5970    7.8390 O   0  0  0  0  0  0
   19.2760   25.7510    6.1470 C   0  0  1  0  0  0
   18.8830   24.7390    5.4810 O   0  0  0  0  0  0
   18.3940   26.8940    5.9880 C   0  0  2  0  0  0
   19.2370   28.0900    5.5900 N   0  0  0  0  0  0
   20.4660   28.6370    6.0110 C   0  0  0  0  0  0
   20.9350   29.5480    5.1920 N   0  0  0  0  0  0
   20.0030   29.6240    4.1730 C   0  0  0  0  0  0
   19.9350   30.4020    2.9750 C   0  0  0  0  0  0
   20.8890   31.2620    2.6350 N   0  0  0  0  0  0
   18.8410   30.2300    2.1530 N   0  3  0  0  0  0
   17.8670   29.3500    2.4800 C   0  0  0  0  0  0
   17.8590   28.5740    3.5790 N   0  0  0  0  0  0
   18.9620   28.7580    4.3950 C   0  0  0  0  0  0
   16.4580   27.5660   12.2080 O   0  0  0  0  0  0
   15.2160   28.0680   13.1530 P   0  0  2  0  0  0
   13.9830   27.4170   12.6420 O   0  0  0  0  0  0
   15.3080   29.5540   13.0930 O   0  0  0  0  0  0
   15.4870   27.6580   14.6850 O   0  0  0  0  0  0
   16.5990   28.1690   15.4750 C   0  0  0  0  0  0
   17.3950   26.9680   16.0250 C   0  0  1  0  0  0
   18.6530   27.3660   16.6140 O   0  0  0  0  0  0
   16.6940   26.1930   17.1670 C   0  0  1  0  0  0
   17.0850   24.8060   17.2870 O   0  0  0  0  0  0
   17.0930   26.9360   18.3930 C   0  0  1  0  0  0
   16.9790   26.2050   19.5880 O   0  0  0  0  0  0
   18.5690   27.2430   18.0380 C   0  0  2  0  0  0
   19.1250   28.3610   18.8110 N   0  0  0  0  0  0
   18.5550   29.6410   18.6670 C   0  0  0  0  0  0
   19.1410   30.6830   19.4650 C   0  0  0  0  0  0
   18.6520   32.0500   19.4140 C   0  0  0  0  0  0
   19.1610   32.9430   20.1020 O   0  0  0  0  0  0
   17.6220   32.3900   18.6160 N   0  0  0  0  0  0
   20.2220   30.3760   20.3170 C   0  0  0  0  0  0
   20.7460   29.1390   20.4350 C   0  0  0  0  0  0
   20.2020   28.1290   19.6810 C   0  0  0  0  0  0
   19.6640   24.5550    4.0970 P   0  0  0  0  0  0
   21.1170   24.3600    4.4040 O   0  0  0  0  0  0
   18.9640   23.4100    3.5430 O   0  5  0  0  0  0
   19.3910   25.7980    3.3810 O   0  0  0  0  0  0
   19.0900   25.2005   12.6387 H   0  0  0  0  0  0
   17.0483   27.7767    9.4157 H   0  0  0  0  0  0
   18.7432   27.4217    9.8931 H   0  0  0  0  0  0
   17.6025   25.1989    8.7533 H   0  0  0  0  0  0
   19.6806   26.4653    7.7495 H   0  0  0  0  0  0
   17.8041   24.4305    8.8485 H   0  0  0  0  0  0
   20.3163   25.6482    5.8047 H   0  0  0  0  0  0
   17.6138   26.5596    5.2884 H   0  0  0  0  0  0
   21.0250   28.3690    6.9230 H   0  0  0  0  0  0
   21.7626   31.4011    3.2888 H   0  0  0  0  0  0
   20.8052   31.8349    1.6997 H   0  0  0  0  0  0
   17.0080   29.2570    1.7930 H   0  0  0  0  0  0
   17.2459   28.7905   14.8384 H   0  0  0  0  0  0
   16.2101   28.7760   16.3059 H   0  0  0  0  0  0
   17.5751   26.3471   15.1351 H   0  0  0  0  0  0
   15.6083   26.0976   17.0184 H   0  0  0  0  0  0
   16.8698   24.1013   16.4703 H   0  0  0  0  0  0
   16.4146   27.7581   18.6649 H   0  0  0  0  0  0
   15.9863   25.9158   19.9633 H   0  0  0  0  0  0
   19.2830   26.4453   18.2908 H   0  0  0  0  0  0
   17.7135   29.8692   17.9964 H   0  0  0  0  0  0
   17.1389   31.6280   17.9867 H   0  0  0  0  0  0
   17.2637   33.4298   18.5934 H   0  0  0  0  0  0
   20.6910   31.1590   20.9350 H   0  0  0  0  0  0
   21.5866   28.9281   21.1124 H   0  0  0  0  0  0
   20.6099   27.1098   19.7506 H   0  0  0  0  0  0
   19.8643   26.7359    3.7071 H   0  0  0  0  0  0
   18.7552   30.8108    1.2228 H   0  0  0  0  0  0
  1  2  2  0  0  0
  1  3  1  0  0  0
  1  4  1  0  0  0
  1 23  1  0  0  0
  3 49  1  0  0  0
  4  5  1  0  0  0
  5  6  1  0  0  0
  5 50  1  0  0  0
  5 51  1  0  0  0
  6  7  1  0  0  0
  6  8  1  0  0  0
  6 52  1  0  0  0
  7 12  1  0  0  0
  8  9  1  0  0  0
  8 10  1  0  0  0
  8 53  1  0  0  0
  9 54  1  0  0  0
 10 11  1  0  0  0
 10 12  1  0  0  0
 10 55  1  0  0  0
 11 45  1  0  0  0
 12 13  1  0  0  0
 12 56  1  0  0  0
 13 14  1  0  0  0
 13 22  1  0  0  0
 14 15  2  0  0  0
 14 57  1  0  0  0
 15 16  1  0  0  0
 16 17  1  0  0  0
 16 22  2  0  0  0
 17 18  1  0  0  0
 17 19  2  0  0  0
 18 58  1  0  0  0
 18 59  1  0  0  0
 19 20  1  0  0  0
 19 76  1  0  0  0
 20 21  2  0  0  0
 20 60  1  0  0  0
 21 22  1  0  0  0
 23 24  1  0  0  0
 24 25  2  0  0  0
 24 26  1  0  0  0
 24 27  1  0  0  0
 27 28  1  0  0  0
 28 29  1  0  0  0
 28 61  1  0  0  0
 28 62  1  0  0  0
 29 30  1  0  0  0
 29 31  1  0  0  0
 29 63  1  0  0  0
 30 35  1  0  0  0
 31 32  1  0  0  0
 31 33  1  0  0  0
 31 64  1  0  0  0
 32 65  1  0  0  0
 33 34  1  0  0  0
 33 35  1  0  0  0
 33 66  1  0  0  0
 34 67  1  0  0  0
 35 36  1  0  0  0
 35 68  1  0  0  0
 36 37  1  0  0  0
 36 44  1  0  0  0
 37 38  2  0  0  0
 37 69  1  0  0  0
 38 39  1  0  0  0
 38 42  1  0  0  0
 39 40  2  0  0  0
 39 41  1  0  0  0
 41 70  1  0  0  0
 41 71  1  0  0  0
 42 43  1  0  0  0
 42 72  1  0  0  0
 43 44  2  0  0  0
 43 73  1  0  0  0
 44 74  1  0  0  0
 45 46  2  0  0  0
 45 47  1  0  0  0
 45 48  1  0  0  0
 48 75  1  0  0  0
M  CHG  2  19   1  47  -1
M  END
> <s_m_source_file>
/cbio/jclab/home/rustenburg/PFK/Epik-Ligands/Results/InProgress/NADP NICOTINAMIDE-ADENINE-DINUCLEOTIDE PHOSPHATE/pH_4.0/NADP NICOTINAMIDE-ADENINE-DINUCLEOTIDE PHOSPHATE_pH_4.0-before_epik.mol2

> <i_m_source_file_index>
1

> <r_epik_Ionization_Penalty>
  1.9208

> <r_epik_Ionization_Penalty_Charging>
  0.5384

> <r_epik_Ionization_Penalty_Neutral>
  1.3824

> <r_epik_State_Penalty>
  3.6098

> <r_epik_Charging_Adjusted_Penalty>
4.14820488701698

> <i_epik_Tot_Q>
0

> <i_epik_Tot_abs_Q>
2

> <s_epik_Chemistry_Notes>
This compound has an imine and may undergo hydrolysis. This compound contains an acetal/aminal-like group ( X-CH(R)-Y where X, Y are N, S, or O) that may be acid/base labile, releasing an aldehyde.

$$$$
NAP
                    3D
 Structure written by MMmdl.
 73 77  0  0  1  0            999 V2000
   17.1740   26.1340   12.0400 P   0  0  0  0  0  0
   16.0480   25.3140   12.5000 O   0  0  0  0  0  0
   18.4780   26.1140   12.6700 O   0  5  0  0  0  0
   17.3170   25.8890   10.4370 O   0  0  0  0  0  0
   17.8130   26.9900    9.4950 C   0  0  0  0  0  0
   17.9620   26.1550    8.3450 C   0  0  1  0  0  0
   17.8590   27.3510    7.2940 O   0  0  0  0  0  0
   18.8400   25.7890    7.5350 C   0  0  1  0  0  0
   18.2080   24.5970    7.8390 O   0  0  0  0  0  0
   19.2760   25.7510    6.1470 C   0  0  1  0  0  0
   18.8830   24.7390    5.4810 O   0  0  0  0  0  0
   18.3940   26.8940    5.9880 C   0  0  2  0  0  0
   19.2370   28.0900    5.5900 N   0  0  0  0  0  0
   20.4660   28.6370    6.0110 C   0  0  0  0  0  0
   20.9350   29.5480    5.1920 N   0  0  0  0  0  0
   20.0030   29.6240    4.1730 C   0  0  0  0  0  0
   19.9350   30.4020    2.9750 C   0  0  0  0  0  0
   20.8890   31.2620    2.6350 N   0  0  0  0  0  0
   18.8410   30.2300    2.1530 N   0  0  0  0  0  0
   17.8670   29.3500    2.4800 C   0  0  0  0  0  0
   17.8590   28.5740    3.5790 N   0  0  0  0  0  0
   18.9620   28.7580    4.3950 C   0  0  0  0  0  0
   16.4580   27.5660   12.2080 O   0  0  0  0  0  0
   15.2160   28.0680   13.1530 P   0  0  2  0  0  0
   13.9830   27.4170   12.6420 O   0  0  0  0  0  0
   15.3080   29.5540   13.0930 O   0  0  0  0  0  0
   15.4870   27.6580   14.6850 O   0  0  0  0  0  0
   16.5990   28.1690   15.4750 C   0  0  0  0  0  0
   17.3950   26.9680   16.0250 C   0  0  1  0  0  0
   18.6530   27.3660   16.6140 O   0  0  0  0  0  0
   16.6940   26.1930   17.1670 C   0  0  1  0  0  0
   17.0850   24.8060   17.2870 O   0  0  0  0  0  0
   17.0930   26.9360   18.3930 C   0  0  1  0  0  0
   16.9790   26.2050   19.5880 O   0  0  0  0  0  0
   18.5690   27.2430   18.0380 C   0  0  2  0  0  0
   19.1250   28.3610   18.8110 N   0  0  0  0  0  0
   18.5550   29.6410   18.6670 C   0  0  0  0  0  0
   19.1410   30.6830   19.4650 C   0  0  0  0  0  0
   18.6520   32.0500   19.4140 C   0  0  0  0  0  0
   19.1610   32.9430   20.1020 O   0  0  0  0  0  0
   17.6220   32.3900   18.6160 N   0  0  0  0  0  0
   20.2220   30.3760   20.3170 C   0  0  0  0  0  0
   20.7460   29.1390   20.4350 C   0  0  0  0  0  0
   20.2020   28.1290   19.6810 C   0  0  0  0  0  0
   19.6640   24.5550    4.0970 P   0  0  0  0  0  0
   21.1170   24.3600    4.4040 O   0  0  0  0  0  0
   18.9640   23.4100    3.5430 O   0  5  0  0  0  0
   19.3910   25.7980    3.3810 O   0  5  0  0  0  0
   17.0483   27.7767    9.4157 H   0  0  0  0  0  0
   18.7432   27.4217    9.8931 H   0  0  0  0  0  0
   17.6025   25.1989    8.7533 H   0  0  0  0  0  0
   19.6806   26.4653    7.7495 H   0  0  0  0  0  0
   17.8041   24.4305    8.8485 H   0  0  0  0  0  0
   20.3163   25.6482    5.8047 H   0  0  0  0  0  0
   17.6138   26.5596    5.2884 H   0  0  0  0  0  0
   21.0250   28.3690    6.9230 H   0  0  0  0  0  0
   21.7626   31.4011    3.2888 H   0  0  0  0  0  0
   20.8052   31.8349    1.6997 H   0  0  0  0  0  0
   17.0080   29.2570    1.7930 H   0  0  0  0  0  0
   17.2459   28.7905   14.8384 H   0  0  0  0  0  0
   16.2101   28.7760   16.3059 H   0  0  0  0  0  0
   17.5751   26.3471   15.1351 H   0  0  0  0  0  0
   15.6083   26.0976   17.0184 H   0  0  0  0  0  0
   16.8698   24.1013   16.4703 H   0  0  0  0  0  0
   16.4146   27.7581   18.6649 H   0  0  0  0  0  0
   15.9863   25.9158   19.9633 H   0  0  0  0  0  0
   19.2830   26.4453   18.2908 H   0  0  0  0  0  0
   17.7135   29.8692   17.9964 H   0  0  0  0  0  0
   17.1389   31.6280   17.9867 H   0  0  0  0  0  0
   17.2637   33.4298   18.5934 H   0  0  0  0  0  0
   20.6910   31.1590   20.9350 H   0  0  0  0  0  0
   21.5866   28.9281   21.1124 H   0  0  0  0  0  0
   20.6099   27.1098   19.7506 H   0  0  0  0  0  0
  1  2  2  0  0  0
  1  3  1  0  0  0
  1  4  1  0  0  0
  1 23  1  0  0  0
  4  5  1  0  0  0
  5  6  1  0  0  0
  5 49  1  0  0  0
  5 50  1  0  0  0
  6  7  1  0  0  0
  6  8  1  0  0  0
  6 51  1  0  0  0
  7 12  1  0  0  0
  8  9  1  0  0  0
  8 10  1  0  0  0
  8 52  1  0  0  0
  9 53  1  0  0  0
 10 11  1  0  0  0
 10 12  1  0  0  0
 10 54  1  0  0  0
 11 45  1  0  0  0
 12 13  1  0  0  0
 12 55  1  0  0  0
 13 14  1  0  0  0
 13 22  1  0  0  0
 14 15  2  0  0  0
 14 56  1  0  0  0
 15 16  1  0  0  0
 16 17  1  0  0  0
 16 22  2  0  0  0
 17 18  1  0  0  0
 17 19  2  0  0  0
 18 57  1  0  0  0
 18 58  1  0  0  0
 19 20  1  0  0  0
 20 21  2  0  0  0
 20 59  1  0  0  0
 21 22  1  0  0  0
 23 24  1  0  0  0
 24 25  2  0  0  0
 24 26  1  0  0  0
 24 27  1  0  0  0
 27 28  1  0  0  0
 28 29  1  0  0  0
 28 60  1  0  0  0
 28 61  1  0  0  0
 29 30  1  0  0  0
 29 31  1  0  0  0
 29 62  1  0  0  0
 30 35  1  0  0  0
 31 32  1  0  0  0
 31 33  1  0  0  0
 31 63  1  0  0  0
 32 64  1  0  0  0
 33 34  1  0  0  0
 33 35  1  0  0  0
 33 65  1  0  0  0
 34 66  1  0  0  0
 35 36  1  0  0  0
 35 67  1  0  0  0
 36 37  1  0  0  0
 36 44  1  0  0  0
 37 38  2  0  0  0
 37 68  1  0  0  0
 38 39  1  0  0  0
 38 42  1  0  0  0
 39 40  2  0  0  0
 39 41  1  0  0  0
 41 69  1  0  0  0
 41 70  1  0  0  0
 42 43  1  0  0  0
 42 71  1  0  0  0
 43 44  2  0  0  0
 43 72  1  0  0  0
 44 73  1  0  0  0
 45 46  2  0  0  0
 45 47  1  0  0  0
 45 48  1  0  0  0
M  CHG  3   3  -1  47  -1  48  -1
M  END
> <s_m_source_file>
/cbio/jclab/home/rustenburg/PFK/Epik-Ligands/Results/InProgress/NADP NICOTINAMIDE-ADENINE-DINUCLEOTIDE PHOSPHATE/pH_4.0/NADP NICOTINAMIDE-ADENINE-DINUCLEOTIDE PHOSPHATE_pH_4.0-before_epik.mol2

> <i_m_source_file_index>
1

> <r_epik_Ionization_Penalty>
  3.3461

> <r_epik_Ionization_Penalty_Charging>
  2.9124

> <r_epik_Ionization_Penalty_Neutral>
  0.4337

> <r_epik_State_Penalty>
  3.8693

> <r_epik_Charging_Adjusted_Penalty>
6.78167896919515

> <i_epik_Tot_Q>
-3

> <i_epik_Tot_abs_Q>
3

> <s_epik_Chemistry_Notes>
This compound has an imine and may undergo hydrolysis. This compound contains an acetal/aminal-like group ( X-CH(R)-Y where X, Y are N, S, or O) that may be acid/base labile, releasing an aldehyde.

$$$$
NAP
                    3D
 Structure written by MMmdl.
 77 81  0  0  1  0            999 V2000
   17.1740   26.1340   12.0400 P   0  0  1  0  0  0
   16.0480   25.3140   12.5000 O   0  0  0  0  0  0
   18.4780   26.1140   12.6700 O   0  0  0  0  0  0
   17.3170   25.8890   10.4370 O   0  0  0  0  0  0
   17.8130   26.9900    9.4950 C   0  0  0  0  0  0
   17.9620   26.1550    8.3450 C   0  0  1  0  0  0
   17.8590   27.3510    7.2940 O   0  0  0  0  0  0
   18.8400   25.7890    7.5350 C   0  0  1  0  0  0
   18.2080   24.5970    7.8390 O   0  0  0  0  0  0
   19.2760   25.7510    6.1470 C   0  0  1  0  0  0
   18.8830   24.7390    5.4810 O   0  0  0  0  0  0
   18.3940   26.8940    5.9880 C   0  0  2  0  0  0
   19.2370   28.0900    5.5900 N   0  0  0  0  0  0
   20.4660   28.6370    6.0110 C   0  0  0  0  0  0
   20.9350   29.5480    5.1920 N   0  3  0  0  0  0
   20.0030   29.6240    4.1730 C   0  0  0  0  0  0
   19.9350   30.4020    2.9750 C   0  0  0  0  0  0
   20.8890   31.2620    2.6350 N   0  0  0  0  0  0
   18.8410   30.2300    2.1530 N   0  0  0  0  0  0
   17.8670   29.3500    2.4800 C   0  0  0  0  0  0
   17.8590   28.5740    3.5790 N   0  0  0  0  0  0
   18.9620   28.7580    4.3950 C   0  0  0  0  0  0
   16.4580   27.5660   12.2080 O   0  0  0  0  0  0
   15.2160   28.0680   13.1530 P   0  0  2  0  0  0
   13.9830   27.4170   12.6420 O   0  0  0  0  0  0
   15.3080   29.5540   13.0930 O   0  0  0  0  0  0
   15.4870   27.6580   14.6850 O   0  0  0  0  0  0
   16.5990   28.1690   15.4750 C   0  0  0  0  0  0
   17.3950   26.9680   16.0250 C   0  0  1  0  0  0
   18.6530   27.3660   16.6140 O   0  0  0  0  0  0
   16.6940   26.1930   17.1670 C   0  0  1  0  0  0
   17.0850   24.8060   17.2870 O   0  0  0  0  0  0
   17.0930   26.9360   18.3930 C   0  0  1  0  0  0
   16.9790   26.2050   19.5880 O   0  0  0  0  0  0
   18.5690   27.2430   18.0380 C   0  0  2  0  0  0
   19.1250   28.3610   18.8110 N   0  0  0  0  0  0
   18.5550   29.6410   18.6670 C   0  0  0  0  0  0
   19.1410   30.6830   19.4650 C   0  0  0  0  0  0
   18.6520   32.0500   19.4140 C   0  0  0  0  0  0
   19.1610   32.9430   20.1020 O   0  0  0  0  0  0
   17.6220   32.3900   18.6160 N   0  0  0  0  0  0
   20.2220   30.3760   20.3170 C   0  0  0  0  0  0
   20.7460   29.1390   20.4350 C   0  0  0  0  0  0
   20.2020   28.1290   19.6810 C   0  0  0  0  0  0
   19.6640   24.5550    4.0970 P   0  0  0  0  0  0
   21.1170   24.3600    4.4040 O   0  0  0  0  0  0
   18.9640   23.4100    3.5430 O   0  0  0  0  0  0
   19.3910   25.7980    3.3810 O   0  0  0  0  0  0
   19.0900   25.2005   12.6387 H   0  0  0  0  0  0
   17.0483   27.7767    9.4157 H   0  0  0  0  0  0
   18.7432   27.4217    9.8931 H   0  0  0  0  0  0
   17.6025   25.1989    8.7533 H   0  0  0  0  0  0
   19.6806   26.4653    7.7495 H   0  0  0  0  0  0
   17.8041   24.4305    8.8485 H   0  0  0  0  0  0
   20.3163   25.6482    5.8047 H   0  0  0  0  0  0
   17.6138   26.5596    5.2884 H   0  0  0  0  0  0
   21.0250   28.3690    6.9230 H   0  0  0  0  0  0
   21.7626   31.4011    3.2888 H   0  0  0  0  0  0
   20.8052   31.8349    1.6997 H   0  0  0  0  0  0
   17.0080   29.2570    1.7930 H   0  0  0  0  0  0
   17.2459   28.7905   14.8384 H   0  0  0  0  0  0
   16.2101   28.7760   16.3059 H   0  0  0  0  0  0
   17.5751   26.3471   15.1351 H   0  0  0  0  0  0
   15.6083   26.0976   17.0184 H   0  0  0  0  0  0
   16.8698   24.1013   16.4703 H   0  0  0  0  0  0
   16.4146   27.7581   18.6649 H   0  0  0  0  0  0
   15.9863   25.9158   19.9633 H   0  0  0  0  0  0
   19.2830   26.4453   18.2908 H   0  0  0  0  0  0
   17.7135   29.8692   17.9964 H   0  0  0  0  0  0
   17.1389   31.6280   17.9867 H   0  0  0  0  0  0
   17.2637   33.4298   18.5934 H   0  0  0  0  0  0
   20.6910   31.1590   20.9350 H   0  0  0  0  0  0
   21.5866   28.9281   21.1124 H   0  0  0  0  0  0
   20.6099   27.1098   19.7506 H   0  0  0  0  0  0
   19.0895   22.4161    3.9972 H   0  0  0  0  0  0
   19.8643   26.7359    3.7071 H   0  0  0  0  0  0
   21.8866   30.0519    5.4166 H   0  0  0  0  0  0
  1  2  2  0  0  0
  1  3  1  0  0  0
  1  4  1  0  0  0
  1 23  1  0  0  0
  3 49  1  0  0  0
  4  5  1  0  0  0
  5  6  1  0  0  0
  5 50  1  0  0  0
  5 51  1  0  0  0
  6  7  1  0  0  0
  6  8  1  0  0  0
  6 52  1  0  0  0
  7 12  1  0  0  0
  8  9  1  0  0  0
  8 10  1  0  0  0
  8 53  1  0  0  0
  9 54  1  0  0  0
 10 11  1  0  0  0
 10 12  1  0  0  0
 10 55  1  0  0  0
 11 45  1  0  0  0
 12 13  1  0  0  0
 12 56  1  0  0  0
 13 14  1  0  0  0
 13 22  1  0  0  0
 14 15  2  0  0  0
 14 57  1  0  0  0
 15 16  1  0  0  0
 15 77  1  0  0  0
 16 17  1  0  0  0
 16 22  2  0  0  0
 17 18  1  0  0  0
 17 19  2  0  0  0
 18 58  1  0  0  0
 18 59  1  0  0  0
 19 20  1  0  0  0
 20 21  2  0  0  0
 20 60  1  0  0  0
 21 22  1  0  0  0
 23 24  1  0  0  0
 24 25  2  0  0  0
 24 26  1  0  0  0
 24 27  1  0  0  0
 27 28  1  0  0  0
 28 29  1  0  0  0
 28 61  1  0  0  0
 28 62  1  0  0  0
 29 30  1  0  0  0
 29 31  1  0  0  0
 29 63  1  0  0  0
 30 35  1  0  0  0
 31 32  1  0  0  0
 31 33  1  0  0  0
 31 64  1  0  0  0
 32 65  1  0  0  0
 33 34  1  0  0  0
 33 35  1  0  0  0
 33 66  1  0  0  0
 34 67  1  0  0  0
 35 36  1  0  0  0
 35 68  1  0  0  0
 36 37  1  0  0  0
 36 44  1  0  0  0
 37 38  2  0  0  0
 37 69  1  0  0  0
 38 39  1  0  0  0
 38 42  1  0  0  0
 39 40  2  0  0  0
 39 41  1  0  0  0
 41 70  1  0  0  0
 41 71  1  0  0  0
 42 43  1  0  0  0
 42 72  1  0  0  0
 43 44  2  0  0  0
 43 73  1  0  0  0
 44 74  1  0  0  0
 45 46  2  0  0  0
 45 47  1  0  0  0
 45 48  1  0  0  0
 47 75  1  0  0  0
 48 76  1  0  0  0
M  CHG  1  15   1
M  END
> <s_m_source_file>
/cbio/jclab/home/rustenburg/PFK/Epik-Ligands/Results/InProgress/NADP NICOTINAMIDE-ADENINE-DINUCLEOTIDE PHOSPHATE/pH_4.0/NADP NICOTINAMIDE-ADENINE-DINUCLEOTIDE PHOSPHATE_pH_4.0-before_epik.mol2

> <i_m_source_file_index>
1

> <r_epik_Ionization_Penalty>
  4.3557

> <r_epik_Ionization_Penalty_Charging>
  1.7341

> <r_epik_Ionization_Penalty_Neutral>
  2.6216

> <r_epik_State_Penalty>
  4.0499

> <r_epik_Charging_Adjusted_Penalty>
5.78397062273819

> <i_epik_Tot_Q>
1

> <i_epik_Tot_abs_Q>
1

> <s_epik_Chemistry_Notes>
This compound has an imine and may undergo hydrolysis. This compound contains an acetal/aminal-like group ( X-CH(R)-Y where X, Y are N, S, or O) that may be acid/base labile, releasing an aldehyde.

$$$$
NAP
                    3D
 Structure written by MMmdl.
 74 78  0  0  1  0            999 V2000
   17.1740   26.1340   12.0400 P   0  0  0  0  0  0
   16.0480   25.3140   12.5000 O   0  0  0  0  0  0
   18.4780   26.1140   12.6700 O   0  5  0  0  0  0
   17.3170   25.8890   10.4370 O   0  0  0  0  0  0
   17.8130   26.9900    9.4950 C   0  0  0  0  0  0
   17.9620   26.1550    8.3450 C   0  0  1  0  0  0
   17.8590   27.3510    7.2940 O   0  0  0  0  0  0
   18.8400   25.7890    7.5350 C   0  0  1  0  0  0
   18.2080   24.5970    7.8390 O   0  0  0  0  0  0
   19.2760   25.7510    6.1470 C   0  0  1  0  0  0
   18.8830   24.7390    5.4810 O   0  0  0  0  0  0
   18.3940   26.8940    5.9880 C   0  0  2  0  0  0
   19.2370   28.0900    5.5900 N   0  0  0  0  0  0
   20.4660   28.6370    6.0110 C   0  0  0  0  0  0
   20.9350   29.5480    5.1920 N   0  3  0  0  0  0
   20.0030   29.6240    4.1730 C   0  0  0  0  0  0
   19.9350   30.4020    2.9750 C   0  0  0  0  0  0
   20.8890   31.2620    2.6350 N   0  0  0  0  0  0
   18.8410   30.2300    2.1530 N   0  0  0  0  0  0
   17.8670   29.3500    2.4800 C   0  0  0  0  0  0
   17.8590   28.5740    3.5790 N   0  0  0  0  0  0
   18.9620   28.7580    4.3950 C   0  0  0  0  0  0
   16.4580   27.5660   12.2080 O   0  0  0  0  0  0
   15.2160   28.0680   13.1530 P   0  0  2  0  0  0
   13.9830   27.4170   12.6420 O   0  0  0  0  0  0
   15.3080   29.5540   13.0930 O   0  0  0  0  0  0
   15.4870   27.6580   14.6850 O   0  0  0  0  0  0
   16.5990   28.1690   15.4750 C   0  0  0  0  0  0
   17.3950   26.9680   16.0250 C   0  0  1  0  0  0
   18.6530   27.3660   16.6140 O   0  0  0  0  0  0
   16.6940   26.1930   17.1670 C   0  0  1  0  0  0
   17.0850   24.8060   17.2870 O   0  0  0  0  0  0
   17.0930   26.9360   18.3930 C   0  0  1  0  0  0
   16.9790   26.2050   19.5880 O   0  0  0  0  0  0
   18.5690   27.2430   18.0380 C   0  0  2  0  0  0
   19.1250   28.3610   18.8110 N   0  0  0  0  0  0
   18.5550   29.6410   18.6670 C   0  0  0  0  0  0
   19.1410   30.6830   19.4650 C   0  0  0  0  0  0
   18.6520   32.0500   19.4140 C   0  0  0  0  0  0
   19.1610   32.9430   20.1020 O   0  0  0  0  0  0
   17.6220   32.3900   18.6160 N   0  0  0  0  0  0
   20.2220   30.3760   20.3170 C   0  0  0  0  0  0
   20.7460   29.1390   20.4350 C   0  0  0  0  0  0
   20.2020   28.1290   19.6810 C   0  0  0  0  0  0
   19.6640   24.5550    4.0970 P   0  0  0  0  0  0
   21.1170   24.3600    4.4040 O   0  0  0  0  0  0
   18.9640   23.4100    3.5430 O   0  5  0  0  0  0
   19.3910   25.7980    3.3810 O   0  5  0  0  0  0
   17.0483   27.7767    9.4157 H   0  0  0  0  0  0
   18.7432   27.4217    9.8931 H   0  0  0  0  0  0
   17.6025   25.1989    8.7533 H   0  0  0  0  0  0
   19.6806   26.4653    7.7495 H   0  0  0  0  0  0
   17.8041   24.4305    8.8485 H   0  0  0  0  0  0
   20.3163   25.6482    5.8047 H   0  0  0  0  0  0
   17.6138   26.5596    5.2884 H   0  0  0  0  0  0
   21.0250   28.3690    6.9230 H   0  0  0  0  0  0
   21.7626   31.4011    3.2888 H   0  0  0  0  0  0
   20.8052   31.8349    1.6997 H   0  0  0  0  0  0
   17.0080   29.2570    1.7930 H   0  0  0  0  0  0
   17.2459   28.7905   14.8384 H   0  0  0  0  0  0
   16.2101   28.7760   16.3059 H   0  0  0  0  0  0
   17.5751   26.3471   15.1351 H   0  0  0  0  0  0
   15.6083   26.0976   17.0184 H   0  0  0  0  0  0
   16.8698   24.1013   16.4703 H   0  0  0  0  0  0
   16.4146   27.7581   18.6649 H   0  0  0  0  0  0
   15.9863   25.9158   19.9633 H   0  0  0  0  0  0
   19.2830   26.4453   18.2908 H   0  0  0  0  0  0
   17.7135   29.8692   17.9964 H   0  0  0  0  0  0
   17.1389   31.6280   17.9867 H   0  0  0  0  0  0
   17.2637   33.4298   18.5934 H   0  0  0  0  0  0
   20.6910   31.1590   20.9350 H   0  0  0  0  0  0
   21.5866   28.9281   21.1124 H   0  0  0  0  0  0
   20.6099   27.1098   19.7506 H   0  0  0  0  0  0
   21.8866   30.0519    5.4166 H   0  0  0  0  0  0
  1  2  2  0  0  0
  1  3  1  0  0  0
  1  4  1  0  0  0
  1 23  1  0  0  0
  4  5  1  0  0  0
  5  6  1  0  0  0
  5 49  1  0  0  0
  5 50  1  0  0  0
  6  7  1  0  0  0
  6  8  1  0  0  0
  6 51  1  0  0  0
  7 12  1  0  0  0
  8  9  1  0  0  0
  8 10  1  0  0  0
  8 52  1  0  0  0
  9 53  1  0  0  0
 10 11  1  0  0  0
 10 12  1  0  0  0
 10 54  1  0  0  0
 11 45  1  0  0  0
 12 13  1  0  0  0
 12 55  1  0  0  0
 13 14  1  0  0  0
 13 22  1  0  0  0
 14 15  2  0  0  0
 14 56  1  0  0  0
 15 16  1  0  0  0
 15 74  1  0  0  0
 16 17  1  0  0  0
 16 22  2  0  0  0
 17 18  1  0  0  0
 17 19  2  0  0  0
 18 57  1  0  0  0
 18 58  1  0  0  0
 19 20  1  0  0  0
 20 21  2  0  0  0
 20 59  1  0  0  0
 21 22  1  0  0  0
 23 24  1  0  0  0
 24 25  2  0  0  0
 24 26  1  0  0  0
 24 27  1  0  0  0
 27 28  1  0  0  0
 28 29  1  0  0  0
 28 60  1  0  0  0
 28 61  1  0  0  0
 29 30  1  0  0  0
 29 31  1  0  0  0
 29 62  1  0  0  0
 30 35  1  0  0  0
 31 32  1  0  0  0
 31 33  1  0  0  0
 31 63  1  0  0  0
 32 64  1  0  0  0
 33 34  1  0  0  0
 33 35  1  0  0  0
 33 65  1  0  0  0
 34 66  1  0  0  0
 35 36  1  0  0  0
 35 67  1  0  0  0
 36 37  1  0  0  0
 36 44  1  0  0  0
 37 38  2  0  0  0
 37 68  1  0  0  0
 38 39  1  0  0  0
 38 42  1  0  0  0
 39 40  2  0  0  0
 39 41  1  0  0  0
 41 69  1  0  0  0
 41 70  1  0  0  0
 42 43  1  0  0  0
 42 71  1  0  0  0
 43 44  2  0  0  0
 43 72  1  0  0  0
 44 73  1  0  0  0
 45 46  2  0  0  0
 45 47  1  0  0  0
 45 48  1  0  0  0
M  CHG  4   3  -1  15   1  47  -1  48  -1
M  END
> <s_m_source_file>
/cbio/jclab/home/rustenburg/PFK/Epik-Ligands/Results/InProgress/NADP NICOTINAMIDE-ADENINE-DINUCLEOTIDE PHOSPHATE/pH_4.0/NADP NICOTINAMIDE-ADENINE-DINUCLEOTIDE PHOSPHATE_pH_4.0-before_epik.mol2

> <i_m_source_file_index>
1

> <r_epik_Ionization_Penalty>
  4.5284

> <r_epik_Ionization_Penalty_Charging>
  4.5158

> <r_epik_Ionization_Penalty_Neutral>
  0.0125

> <r_epik_State_Penalty>
  4.8502

> <r_epik_Charging_Adjusted_Penalty>
9.36600404482938

> <i_epik_Tot_Q>
-2

> <i_epik_Tot_abs_Q>
4

> <s_epik_Chemistry_Notes>
This compound has an imine and may undergo hydrolysis. This compound contains an acetal/aminal-like group ( X-CH(R)-Y where X, Y are N, S, or O) that may be acid/base labile, releasing an aldehyde.

$$$$
NAP
                    3D
 Structure written by MMmdl.
 77 81  0  0  1  0            999 V2000
   17.1740   26.1340   12.0400 P   0  0  1  0  0  0
   16.0480   25.3140   12.5000 O   0  0  0  0  0  0
   18.4780   26.1140   12.6700 O   0  0  0  0  0  0
   17.3170   25.8890   10.4370 O   0  0  0  0  0  0
   17.8130   26.9900    9.4950 C   0  0  0  0  0  0
   17.9620   26.1550    8.3450 C   0  0  1  0  0  0
   17.8590   27.3510    7.2940 O   0  0  0  0  0  0
   18.8400   25.7890    7.5350 C   0  0  1  0  0  0
   18.2080   24.5970    7.8390 O   0  0  0  0  0  0
   19.2760   25.7510    6.1470 C   0  0  1  0  0  0
   18.8830   24.7390    5.4810 O   0  0  0  0  0  0
   18.3940   26.8940    5.9880 C   0  0  2  0  0  0
   19.2370   28.0900    5.5900 N   0  0  0  0  0  0
   20.4660   28.6370    6.0110 C   0  0  0  0  0  0
   20.9350   29.5480    5.1920 N   0  0  0  0  0  0
   20.0030   29.6240    4.1730 C   0  0  0  0  0  0
   19.9350   30.4020    2.9750 C   0  0  0  0  0  0
   20.8890   31.2620    2.6350 N   0  0  0  0  0  0
   18.8410   30.2300    2.1530 N   0  3  0  0  0  0
   17.8670   29.3500    2.4800 C   0  0  0  0  0  0
   17.8590   28.5740    3.5790 N   0  0  0  0  0  0
   18.9620   28.7580    4.3950 C   0  0  0  0  0  0
   16.4580   27.5660   12.2080 O   0  0  0  0  0  0
   15.2160   28.0680   13.1530 P   0  0  2  0  0  0
   13.9830   27.4170   12.6420 O   0  0  0  0  0  0
   15.3080   29.5540   13.0930 O   0  0  0  0  0  0
   15.4870   27.6580   14.6850 O   0  0  0  0  0  0
   16.5990   28.1690   15.4750 C   0  0  0  0  0  0
   17.3950   26.9680   16.0250 C   0  0  1  0  0  0
   18.6530   27.3660   16.6140 O   0  0  0  0  0  0
   16.6940   26.1930   17.1670 C   0  0  1  0  0  0
   17.0850   24.8060   17.2870 O   0  0  0  0  0  0
   17.0930   26.9360   18.3930 C   0  0  1  0  0  0
   16.9790   26.2050   19.5880 O   0  0  0  0  0  0
   18.5690   27.2430   18.0380 C   0  0  2  0  0  0
   19.1250   28.3610   18.8110 N   0  0  0  0  0  0
   18.5550   29.6410   18.6670 C   0  0  0  0  0  0
   19.1410   30.6830   19.4650 C   0  0  0  0  0  0
   18.6520   32.0500   19.4140 C   0  0  0  0  0  0
   19.1610   32.9430   20.1020 O   0  0  0  0  0  0
   17.6220   32.3900   18.6160 N   0  0  0  0  0  0
   20.2220   30.3760   20.3170 C   0  0  0  0  0  0
   20.7460   29.1390   20.4350 C   0  0  0  0  0  0
   20.2020   28.1290   19.6810 C   0  0  0  0  0  0
   19.6640   24.5550    4.0970 P   0  0  0  0  0  0
   21.1170   24.3600    4.4040 O   0  0  0  0  0  0
   18.9640   23.4100    3.5430 O   0  0  0  0  0  0
   19.3910   25.7980    3.3810 O   0  0  0  0  0  0
   19.0900   25.2005   12.6387 H   0  0  0  0  0  0
   17.0483   27.7767    9.4157 H   0  0  0  0  0  0
   18.7432   27.4217    9.8931 H   0  0  0  0  0  0
   17.6025   25.1989    8.7533 H   0  0  0  0  0  0
   19.6806   26.4653    7.7495 H   0  0  0  0  0  0
   17.8041   24.4305    8.8485 H   0  0  0  0  0  0
   20.3163   25.6482    5.8047 H   0  0  0  0  0  0
   17.6138   26.5596    5.2884 H   0  0  0  0  0  0
   21.0250   28.3690    6.9230 H   0  0  0  0  0  0
   21.7626   31.4011    3.2888 H   0  0  0  0  0  0
   20.8052   31.8349    1.6997 H   0  0  0  0  0  0
   17.0080   29.2570    1.7930 H   0  0  0  0  0  0
   17.2459   28.7905   14.8384 H   0  0  0  0  0  0
   16.2101   28.7760   16.3059 H   0  0  0  0  0  0
   17.5751   26.3471   15.1351 H   0  0  0  0  0  0
   15.6083   26.0976   17.0184 H   0  0  0  0  0  0
   16.8698   24.1013   16.4703 H   0  0  0  0  0  0
   16.4146   27.7581   18.6649 H   0  0  0  0  0  0
   15.9863   25.9158   19.9633 H   0  0  0  0  0  0
   19.2830   26.4453   18.2908 H   0  0  0  0  0  0
   17.7135   29.8692   17.9964 H   0  0  0  0  0  0
   17.1389   31.6280   17.9867 H   0  0  0  0  0  0
   17.2637   33.4298   18.5934 H   0  0  0  0  0  0
   20.6910   31.1590   20.9350 H   0  0  0  0  0  0
   21.5866   28.9281   21.1124 H   0  0  0  0  0  0
   20.6099   27.1098   19.7506 H   0  0  0  0  0  0
   19.0895   22.4161    3.9972 H   0  0  0  0  0  0
   19.8643   26.7359    3.7071 H   0  0  0  0  0  0
   18.7552   30.8108    1.2228 H   0  0  0  0  0  0
  1  2  2  0  0  0
  1  3  1  0  0  0
  1  4  1  0  0  0
  1 23  1  0  0  0
  3 49  1  0  0  0
  4  5  1  0  0  0
  5  6  1  0  0  0
  5 50  1  0  0  0
  5 51  1  0  0  0
  6  7  1  0  0  0
  6  8  1  0  0  0
  6 52  1  0  0  0
  7 12  1  0  0  0
  8  9  1  0  0  0
  8 10  1  0  0  0
  8 53  1  0  0  0
  9 54  1  0  0  0
 10 11  1  0  0  0
 10 12  1  0  0  0
 10 55  1  0  0  0
 11 45  1  0  0  0
 12 13  1  0  0  0
 12 56  1  0  0  0
 13 14  1  0  0  0
 13 22  1  0  0  0
 14 15  2  0  0  0
 14 57  1  0  0  0
 15 16  1  0  0  0
 16 17  1  0  0  0
 16 22  2  0  0  0
 17 18  1  0  0  0
 17 19  2  0  0  0
 18 58  1  0  0  0
 18 59  1  0  0  0
 19 20  1  0  0  0
 19 77  1  0  0  0
 20 21  2  0  0  0
 20 60  1  0  0  0
 21 22  1  0  0  0
 23 24  1  0  0  0
 24 25  2  0  0  0
 24 26  1  0  0  0
 24 27  1  0  0  0
 27 28  1  0  0  0
 28 29  1  0  0  0
 28 61  1  0  0  0
 28 62  1  0  0  0
 29 30  1  0  0  0
 29 31  1  0  0  0
 29 63  1  0  0  0
 30 35  1  0  0  0
 31 32  1  0  0  0
 31 33  1  0  0  0
 31 64  1  0  0  0
 32 65  1  0  0  0
 33 34  1  0  0  0
 33 35  1  0  0  0
 33 66  1  0  0  0
 34 67  1  0  0  0
 35 36  1  0  0  0
 35 68  1  0  0  0
 36 37  1  0  0  0
 36 44  1  0  0  0
 37 38  2  0  0  0
 37 69  1  0  0  0
 38 39  1  0  0  0
 38 42  1  0  0  0
 39 40  2  0  0  0
 39 41  1  0  0  0
 41 70  1  0  0  0
 41 71  1  0  0  0
 42 43  1  0  0  0
 42 72  1  0  0  0
 43 44  2  0  0  0
 43 73  1  0  0  0
 44 74  1  0  0  0
 45 46  2  0  0  0
 45 47  1  0  0  0
 45 48  1  0  0  0
 47 75  1  0  0  0
 48 76  1  0  0  0
M  CHG  1  19   1
M  END
> <s_m_source_file>
/cbio/jclab/home/rustenburg/PFK/Epik-Ligands/Results/InProgress/NADP NICOTINAMIDE-ADENINE-DINUCLEOTIDE PHOSPHATE/pH_4.0/NADP NICOTINAMIDE-ADENINE-DINUCLEOTIDE PHOSPHATE_pH_4.0-before_epik.mol2

> <i_m_source_file_index>
1

> <r_epik_Ionization_Penalty>
  3.0536

> <r_epik_Ionization_Penalty_Charging>
  0.4677

> <r_epik_Ionization_Penalty_Neutral>
  2.5859

> <r_epik_State_Penalty>
  5.0156

> <r_epik_Charging_Adjusted_Penalty>
5.48328430862021

> <i_epik_Tot_Q>
1

> <i_epik_Tot_abs_Q>
1

> <s_epik_Chemistry_Notes>
This compound has an imine and may undergo hydrolysis. This compound contains an acetal/aminal-like group ( X-CH(R)-Y where X, Y are N, S, or O) that may be acid/base labile, releasing an aldehyde.

$$$$
NAP
                    3D
 Structure written by MMmdl.
 74 78  0  0  1  0            999 V2000
   17.1740   26.1340   12.0400 P   0  0  1  0  0  0
   16.0480   25.3140   12.5000 O   0  0  0  0  0  0
   18.4780   26.1140   12.6700 O   0  0  0  0  0  0
   17.3170   25.8890   10.4370 O   0  0  0  0  0  0
   17.8130   26.9900    9.4950 C   0  0  0  0  0  0
   17.9620   26.1550    8.3450 C   0  0  1  0  0  0
   17.8590   27.3510    7.2940 O   0  0  0  0  0  0
   18.8400   25.7890    7.5350 C   0  0  1  0  0  0
   18.2080   24.5970    7.8390 O   0  0  0  0  0  0
   19.2760   25.7510    6.1470 C   0  0  1  0  0  0
   18.8830   24.7390    5.4810 O   0  0  0  0  0  0
   18.3940   26.8940    5.9880 C   0  0  2  0  0  0
   19.2370   28.0900    5.5900 N   0  0  0  0  0  0
   20.4660   28.6370    6.0110 C   0  0  0  0  0  0
   20.9350   29.5480    5.1920 N   0  0  0  0  0  0
   20.0030   29.6240    4.1730 C   0  0  0  0  0  0
   19.9350   30.4020    2.9750 C   0  0  0  0  0  0
   20.8890   31.2620    2.6350 N   0  0  0  0  0  0
   18.8410   30.2300    2.1530 N   0  0  0  0  0  0
   17.8670   29.3500    2.4800 C   0  0  0  0  0  0
   17.8590   28.5740    3.5790 N   0  0  0  0  0  0
   18.9620   28.7580    4.3950 C   0  0  0  0  0  0
   16.4580   27.5660   12.2080 O   0  0  0  0  0  0
   15.2160   28.0680   13.1530 P   0  0  2  0  0  0
   13.9830   27.4170   12.6420 O   0  0  0  0  0  0
   15.3080   29.5540   13.0930 O   0  0  0  0  0  0
   15.4870   27.6580   14.6850 O   0  0  0  0  0  0
   16.5990   28.1690   15.4750 C   0  0  0  0  0  0
   17.3950   26.9680   16.0250 C   0  0  1  0  0  0
   18.6530   27.3660   16.6140 O   0  0  0  0  0  0
   16.6940   26.1930   17.1670 C   0  0  1  0  0  0
   17.0850   24.8060   17.2870 O   0  0  0  0  0  0
   17.0930   26.9360   18.3930 C   0  0  1  0  0  0
   16.9790   26.2050   19.5880 O   0  0  0  0  0  0
   18.5690   27.2430   18.0380 C   0  0  2  0  0  0
   19.1250   28.3610   18.8110 N   0  0  0  0  0  0
   18.5550   29.6410   18.6670 C   0  0  0  0  0  0
   19.1410   30.6830   19.4650 C   0  0  0  0  0  0
   18.6520   32.0500   19.4140 C   0  0  0  0  0  0
   19.1610   32.9430   20.1020 O   0  0  0  0  0  0
   17.6220   32.3900   18.6160 N   0  0  0  0  0  0
   20.2220   30.3760   20.3170 C   0  0  0  0  0  0
   20.7460   29.1390   20.4350 C   0  0  0  0  0  0
   20.2020   28.1290   19.6810 C   0  0  0  0  0  0
   19.6640   24.5550    4.0970 P   0  0  0  0  0  0
   21.1170   24.3600    4.4040 O   0  0  0  0  0  0
   18.9640   23.4100    3.5430 O   0  5  0  0  0  0
   19.3910   25.7980    3.3810 O   0  5  0  0  0  0
   19.0900   25.2005   12.6387 H   0  0  0  0  0  0
   17.0483   27.7767    9.4157 H   0  0  0  0  0  0
   18.7432   27.4217    9.8931 H   0  0  0  0  0  0
   17.6025   25.1989    8.7533 H   0  0  0  0  0  0
   19.6806   26.4653    7.7495 H   0  0  0  0  0  0
   17.8041   24.4305    8.8485 H   0  0  0  0  0  0
   20.3163   25.6482    5.8047 H   0  0  0  0  0  0
   17.6138   26.5596    5.2884 H   0  0  0  0  0  0
   21.0250   28.3690    6.9230 H   0  0  0  0  0  0
   21.7626   31.4011    3.2888 H   0  0  0  0  0  0
   20.8052   31.8349    1.6997 H   0  0  0  0  0  0
   17.0080   29.2570    1.7930 H   0  0  0  0  0  0
   17.2459   28.7905   14.8384 H   0  0  0  0  0  0
   16.2101   28.7760   16.3059 H   0  0  0  0  0  0
   17.5751   26.3471   15.1351 H   0  0  0  0  0  0
   15.6083   26.0976   17.0184 H   0  0  0  0  0  0
   16.8698   24.1013   16.4703 H   0  0  0  0  0  0
   16.4146   27.7581   18.6649 H   0  0  0  0  0  0
   15.9863   25.9158   19.9633 H   0  0  0  0  0  0
   19.2830   26.4453   18.2908 H   0  0  0  0  0  0
   17.7135   29.8692   17.9964 H   0  0  0  0  0  0
   17.1389   31.6280   17.9867 H   0  0  0  0  0  0
   17.2637   33.4298   18.5934 H   0  0  0  0  0  0
   20.6910   31.1590   20.9350 H   0  0  0  0  0  0
   21.5866   28.9281   21.1124 H   0  0  0  0  0  0
   20.6099   27.1098   19.7506 H   0  0  0  0  0  0
  1  2  2  0  0  0
  1  3  1  0  0  0
  1  4  1  0  0  0
  1 23  1  0  0  0
  3 49  1  0  0  0
  4  5  1  0  0  0
  5  6  1  0  0  0
  5 50  1  0  0  0
  5 51  1  0  0  0
  6  7  1  0  0  0
  6  8  1  0  0  0
  6 52  1  0  0  0
  7 12  1  0  0  0
  8  9  1  0  0  0
  8 10  1  0  0  0
  8 53  1  0  0  0
  9 54  1  0  0  0
 10 11  1  0  0  0
 10 12  1  0  0  0
 10 55  1  0  0  0
 11 45  1  0  0  0
 12 13  1  0  0  0
 12 56  1  0  0  0
 13 14  1  0  0  0
 13 22  1  0  0  0
 14 15  2  0  0  0
 14 57  1  0  0  0
 15 16  1  0  0  0
 16 17  1  0  0  0
 16 22  2  0  0  0
 17 18  1  0  0  0
 17 19  2  0  0  0
 18 58  1  0  0  0
 18 59  1  0  0  0
 19 20  1  0  0  0
 20 21  2  0  0  0
 20 60  1  0  0  0
 21 22  1  0  0  0
 23 24  1  0  0  0
 24 25  2  0  0  0
 24 26  1  0  0  0
 24 27  1  0  0  0
 27 28  1  0  0  0
 28 29  1  0  0  0
 28 61  1  0  0  0
 28 62  1  0  0  0
 29 30  1  0  0  0
 29 31  1  0  0  0
 29 63  1  0  0  0
 30 35  1  0  0  0
 31 32  1  0  0  0
 31 33  1  0  0  0
 31 64  1  0  0  0
 32 65  1  0  0  0
 33 34  1  0  0  0
 33 35  1  0  0  0
 33 66  1  0  0  0
 34 67  1  0  0  0
 35 36  1  0  0  0
 35 68  1  0  0  0
 36 37  1  0  0  0
 36 44  1  0  0  0
 37 38  2  0  0  0
 37 69  1  0  0  0
 38 39  1  0  0  0
 38 42  1  0  0  0
 39 40  2  0  0  0
 39 41  1  0  0  0
 41 70  1  0  0  0
 41 71  1  0  0  0
 42 43  1  0  0  0
 42 72  1  0  0  0
 43 44  2  0  0  0
 43 73  1  0  0  0
 44 74  1  0  0  0
 45 46  2  0  0  0
 45 47  1  0  0  0
 45 48  1  0  0  0
M  CHG  2  47  -1  48  -1
M  END
> <s_m_source_file>
/cbio/jclab/home/rustenburg/PFK/Epik-Ligands/Results/InProgress/NADP NICOTINAMIDE-ADENINE-DINUCLEOTIDE PHOSPHATE/pH_4.0/NADP NICOTINAMIDE-ADENINE-DINUCLEOTIDE PHOSPHATE_pH_4.0-before_epik.mol2

> <i_m_source_file_index>
1

> <r_epik_Ionization_Penalty>
  4.6558

> <r_epik_Ionization_Penalty_Charging>
  2.8508

> <r_epik_Ionization_Penalty_Neutral>
  1.8051

> <r_epik_State_Penalty>
  5.2508

> <r_epik_Charging_Adjusted_Penalty>
8.10160155831916

> <i_epik_Tot_Q>
-2

> <i_epik_Tot_abs_Q>
2

> <s_epik_Chemistry_Notes>
This compound has an imine and may undergo hydrolysis. This compound contains an acetal/aminal-like group ( X-CH(R)-Y where X, Y are N, S, or O) that may be acid/base labile, releasing an aldehyde.

$$$$
NAP
                    3D
 Structure written by MMmdl.
 74 78  0  0  1  0            999 V2000
   17.1740   26.1340   12.0400 P   0  0  0  0  0  0
   16.0480   25.3140   12.5000 O   0  0  0  0  0  0
   18.4780   26.1140   12.6700 O   0  5  0  0  0  0
   17.3170   25.8890   10.4370 O   0  0  0  0  0  0
   17.8130   26.9900    9.4950 C   0  0  0  0  0  0
   17.9620   26.1550    8.3450 C   0  0  1  0  0  0
   17.8590   27.3510    7.2940 O   0  0  0  0  0  0
   18.8400   25.7890    7.5350 C   0  0  1  0  0  0
   18.2080   24.5970    7.8390 O   0  0  0  0  0  0
   19.2760   25.7510    6.1470 C   0  0  1  0  0  0
   18.8830   24.7390    5.4810 O   0  0  0  0  0  0
   18.3940   26.8940    5.9880 C   0  0  2  0  0  0
   19.2370   28.0900    5.5900 N   0  0  0  0  0  0
   20.4660   28.6370    6.0110 C   0  0  0  0  0  0
   20.9350   29.5480    5.1920 N   0  0  0  0  0  0
   20.0030   29.6240    4.1730 C   0  0  0  0  0  0
   19.9350   30.4020    2.9750 C   0  0  0  0  0  0
   20.8890   31.2620    2.6350 N   0  0  0  0  0  0
   18.8410   30.2300    2.1530 N   0  3  0  0  0  0
   17.8670   29.3500    2.4800 C   0  0  0  0  0  0
   17.8590   28.5740    3.5790 N   0  0  0  0  0  0
   18.9620   28.7580    4.3950 C   0  0  0  0  0  0
   16.4580   27.5660   12.2080 O   0  0  0  0  0  0
   15.2160   28.0680   13.1530 P   0  0  2  0  0  0
   13.9830   27.4170   12.6420 O   0  0  0  0  0  0
   15.3080   29.5540   13.0930 O   0  0  0  0  0  0
   15.4870   27.6580   14.6850 O   0  0  0  0  0  0
   16.5990   28.1690   15.4750 C   0  0  0  0  0  0
   17.3950   26.9680   16.0250 C   0  0  1  0  0  0
   18.6530   27.3660   16.6140 O   0  0  0  0  0  0
   16.6940   26.1930   17.1670 C   0  0  1  0  0  0
   17.0850   24.8060   17.2870 O   0  0  0  0  0  0
   17.0930   26.9360   18.3930 C   0  0  1  0  0  0
   16.9790   26.2050   19.5880 O   0  0  0  0  0  0
   18.5690   27.2430   18.0380 C   0  0  2  0  0  0
   19.1250   28.3610   18.8110 N   0  0  0  0  0  0
   18.5550   29.6410   18.6670 C   0  0  0  0  0  0
   19.1410   30.6830   19.4650 C   0  0  0  0  0  0
   18.6520   32.0500   19.4140 C   0  0  0  0  0  0
   19.1610   32.9430   20.1020 O   0  0  0  0  0  0
   17.6220   32.3900   18.6160 N   0  0  0  0  0  0
   20.2220   30.3760   20.3170 C   0  0  0  0  0  0
   20.7460   29.1390   20.4350 C   0  0  0  0  0  0
   20.2020   28.1290   19.6810 C   0  0  0  0  0  0
   19.6640   24.5550    4.0970 P   0  0  0  0  0  0
   21.1170   24.3600    4.4040 O   0  0  0  0  0  0
   18.9640   23.4100    3.5430 O   0  5  0  0  0  0
   19.3910   25.7980    3.3810 O   0  5  0  0  0  0
   17.0483   27.7767    9.4157 H   0  0  0  0  0  0
   18.7432   27.4217    9.8931 H   0  0  0  0  0  0
   17.6025   25.1989    8.7533 H   0  0  0  0  0  0
   19.6806   26.4653    7.7495 H   0  0  0  0  0  0
   17.8041   24.4305    8.8485 H   0  0  0  0  0  0
   20.3163   25.6482    5.8047 H   0  0  0  0  0  0
   17.6138   26.5596    5.2884 H   0  0  0  0  0  0
   21.0250   28.3690    6.9230 H   0  0  0  0  0  0
   21.7626   31.4011    3.2888 H   0  0  0  0  0  0
   20.8052   31.8349    1.6997 H   0  0  0  0  0  0
   17.0080   29.2570    1.7930 H   0  0  0  0  0  0
   17.2459   28.7905   14.8384 H   0  0  0  0  0  0
   16.2101   28.7760   16.3059 H   0  0  0  0  0  0
   17.5751   26.3471   15.1351 H   0  0  0  0  0  0
   15.6083   26.0976   17.0184 H   0  0  0  0  0  0
   16.8698   24.1013   16.4703 H   0  0  0  0  0  0
   16.4146   27.7581   18.6649 H   0  0  0  0  0  0
   15.9863   25.9158   19.9633 H   0  0  0  0  0  0
   19.2830   26.4453   18.2908 H   0  0  0  0  0  0
   17.7135   29.8692   17.9964 H   0  0  0  0  0  0
   17.1389   31.6280   17.9867 H   0  0  0  0  0  0
   17.2637   33.4298   18.5934 H   0  0  0  0  0  0
   20.6910   31.1590   20.9350 H   0  0  0  0  0  0
   21.5866   28.9281   21.1124 H   0  0  0  0  0  0
   20.6099   27.1098   19.7506 H   0  0  0  0  0  0
   18.7552   30.8108    1.2228 H   0  0  0  0  0  0
  1  2  2  0  0  0
  1  3  1  0  0  0
  1  4  1  0  0  0
  1 23  1  0  0  0
  4  5  1  0  0  0
  5  6  1  0  0  0
  5 49  1  0  0  0
  5 50  1  0  0  0
  6  7  1  0  0  0
  6  8  1  0  0  0
  6 51  1  0  0  0
  7 12  1  0  0  0
  8  9  1  0  0  0
  8 10  1  0  0  0
  8 52  1  0  0  0
  9 53  1  0  0  0
 10 11  1  0  0  0
 10 12  1  0  0  0
 10 54  1  0  0  0
 11 45  1  0  0  0
 12 13  1  0  0  0
 12 55  1  0  0  0
 13 14  1  0  0  0
 13 22  1  0  0  0
 14 15  2  0  0  0
 14 56  1  0  0  0
 15 16  1  0  0  0
 16 17  1  0  0  0
 16 22  2  0  0  0
 17 18  1  0  0  0
 17 19  2  0  0  0
 18 57  1  0  0  0
 18 58  1  0  0  0
 19 20  1  0  0  0
 19 74  1  0  0  0
 20 21  2  0  0  0
 20 59  1  0  0  0
 21 22  1  0  0  0
 23 24  1  0  0  0
 24 25  2  0  0  0
 24 26  1  0  0  0
 24 27  1  0  0  0
 27 28  1  0  0  0
 28 29  1  0  0  0
 28 60  1  0  0  0
 28 61  1  0  0  0
 29 30  1  0  0  0
 29 31  1  0  0  0
 29 62  1  0  0  0
 30 35  1  0  0  0
 31 32  1  0  0  0
 31 33  1  0  0  0
 31 63  1  0  0  0
 32 64  1  0  0  0
 33 34  1  0  0  0
 33 35  1  0  0  0
 33 65  1  0  0  0
 34 66  1  0  0  0
 35 36  1  0  0  0
 35 67  1  0  0  0
 36 37  1  0  0  0
 36 44  1  0  0  0
 37 38  2  0  0  0
 37 68  1  0  0  0
 38 39  1  0  0  0
 38 42  1  0  0  0
 39 40  2  0  0  0
 39 41  1  0  0  0
 41 69  1  0  0  0
 41 70  1  0  0  0
 42 43  1  0  0  0
 42 71  1  0  0  0
 43 44  2  0  0  0
 43 72  1  0  0  0
 44 73  1  0  0  0
 45 46  2  0  0  0
 45 47  1  0  0  0
 45 48  1  0  0  0
M  CHG  4   3  -1  19   1  47  -1  48  -1
M  END
> <s_m_source_file>
/cbio/jclab/home/rustenburg/PFK/Epik-Ligands/Results/InProgress/NADP NICOTINAMIDE-ADENINE-DINUCLEOTIDE PHOSPHATE/pH_4.0/NADP NICOTINAMIDE-ADENINE-DINUCLEOTIDE PHOSPHATE_pH_4.0-before_epik.mol2

> <i_m_source_file_index>
1

> <r_epik_Ionization_Penalty>
  3.3457

> <r_epik_Ionization_Penalty_Charging>
  3.3398

> <r_epik_Ionization_Penalty_Neutral>
  0.0059

> <r_epik_State_Penalty>
  5.2570

> <r_epik_Charging_Adjusted_Penalty>
8.59680183825469

> <i_epik_Tot_Q>
-2

> <i_epik_Tot_abs_Q>
4

> <s_epik_Chemistry_Notes>
This compound has an imine and may undergo hydrolysis. This compound contains an acetal/aminal-like group ( X-CH(R)-Y where X, Y are N, S, or O) that may be acid/base labile, releasing an aldehyde.

$$$$
NAP
                    3D
 Structure written by MMmdl.
 76 80  0  0  1  0            999 V2000
   17.1740   26.1340   12.0400 P   0  0  0  0  0  0
   16.0480   25.3140   12.5000 O   0  0  0  0  0  0
   18.4780   26.1140   12.6700 O   0  5  0  0  0  0
   17.3170   25.8890   10.4370 O   0  0  0  0  0  0
   17.8130   26.9900    9.4950 C   0  0  0  0  0  0
   17.9620   26.1550    8.3450 C   0  0  1  0  0  0
   17.8590   27.3510    7.2940 O   0  0  0  0  0  0
   18.8400   25.7890    7.5350 C   0  0  1  0  0  0
   18.2080   24.5970    7.8390 O   0  0  0  0  0  0
   19.2760   25.7510    6.1470 C   0  0  1  0  0  0
   18.8830   24.7390    5.4810 O   0  0  0  0  0  0
   18.3940   26.8940    5.9880 C   0  0  2  0  0  0
   19.2370   28.0900    5.5900 N   0  0  0  0  0  0
   20.4660   28.6370    6.0110 C   0  0  0  0  0  0
   20.9350   29.5480    5.1920 N   0  3  0  0  0  0
   20.0030   29.6240    4.1730 C   0  0  0  0  0  0
   19.9350   30.4020    2.9750 C   0  0  0  0  0  0
   20.8890   31.2620    2.6350 N   0  0  0  0  0  0
   18.8410   30.2300    2.1530 N   0  3  0  0  0  0
   17.8670   29.3500    2.4800 C   0  0  0  0  0  0
   17.8590   28.5740    3.5790 N   0  0  0  0  0  0
   18.9620   28.7580    4.3950 C   0  0  0  0  0  0
   16.4580   27.5660   12.2080 O   0  0  0  0  0  0
   15.2160   28.0680   13.1530 P   0  0  2  0  0  0
   13.9830   27.4170   12.6420 O   0  0  0  0  0  0
   15.3080   29.5540   13.0930 O   0  0  0  0  0  0
   15.4870   27.6580   14.6850 O   0  0  0  0  0  0
   16.5990   28.1690   15.4750 C   0  0  0  0  0  0
   17.3950   26.9680   16.0250 C   0  0  1  0  0  0
   18.6530   27.3660   16.6140 O   0  0  0  0  0  0
   16.6940   26.1930   17.1670 C   0  0  1  0  0  0
   17.0850   24.8060   17.2870 O   0  0  0  0  0  0
   17.0930   26.9360   18.3930 C   0  0  1  0  0  0
   16.9790   26.2050   19.5880 O   0  0  0  0  0  0
   18.5690   27.2430   18.0380 C   0  0  2  0  0  0
   19.1250   28.3610   18.8110 N   0  0  0  0  0  0
   18.5550   29.6410   18.6670 C   0  0  0  0  0  0
   19.1410   30.6830   19.4650 C   0  0  0  0  0  0
   18.6520   32.0500   19.4140 C   0  0  0  0  0  0
   19.1610   32.9430   20.1020 O   0  0  0  0  0  0
   17.6220   32.3900   18.6160 N   0  0  0  0  0  0
   20.2220   30.3760   20.3170 C   0  0  0  0  0  0
   20.7460   29.1390   20.4350 C   0  0  0  0  0  0
   20.2020   28.1290   19.6810 C   0  0  0  0  0  0
   19.6640   24.5550    4.0970 P   0  0  0  0  0  0
   21.1170   24.3600    4.4040 O   0  0  0  0  0  0
   18.9640   23.4100    3.5430 O   0  5  0  0  0  0
   19.3910   25.7980    3.3810 O   0  0  0  0  0  0
   17.0483   27.7767    9.4157 H   0  0  0  0  0  0
   18.7432   27.4217    9.8931 H   0  0  0  0  0  0
   17.6025   25.1989    8.7533 H   0  0  0  0  0  0
   19.6806   26.4653    7.7495 H   0  0  0  0  0  0
   17.8041   24.4305    8.8485 H   0  0  0  0  0  0
   20.3163   25.6482    5.8047 H   0  0  0  0  0  0
   17.6138   26.5596    5.2884 H   0  0  0  0  0  0
   21.0250   28.3690    6.9230 H   0  0  0  0  0  0
   21.7626   31.4011    3.2888 H   0  0  0  0  0  0
   20.8052   31.8349    1.6997 H   0  0  0  0  0  0
   17.0080   29.2570    1.7930 H   0  0  0  0  0  0
   17.2459   28.7905   14.8384 H   0  0  0  0  0  0
   16.2101   28.7760   16.3059 H   0  0  0  0  0  0
   17.5751   26.3471   15.1351 H   0  0  0  0  0  0
   15.6083   26.0976   17.0184 H   0  0  0  0  0  0
   16.8698   24.1013   16.4703 H   0  0  0  0  0  0
   16.4146   27.7581   18.6649 H   0  0  0  0  0  0
   15.9863   25.9158   19.9633 H   0  0  0  0  0  0
   19.2830   26.4453   18.2908 H   0  0  0  0  0  0
   17.7135   29.8692   17.9964 H   0  0  0  0  0  0
   17.1389   31.6280   17.9867 H   0  0  0  0  0  0
   17.2637   33.4298   18.5934 H   0  0  0  0  0  0
   20.6910   31.1590   20.9350 H   0  0  0  0  0  0
   21.5866   28.9281   21.1124 H   0  0  0  0  0  0
   20.6099   27.1098   19.7506 H   0  0  0  0  0  0
   19.8643   26.7359    3.7071 H   0  0  0  0  0  0
   18.7552   30.8108    1.2228 H   0  0  0  0  0  0
   21.8866   30.0519    5.4166 H   0  0  0  0  0  0
  1  2  2  0  0  0
  1  3  1  0  0  0
  1  4  1  0  0  0
  1 23  1  0  0  0
  4  5  1  0  0  0
  5  6  1  0  0  0
  5 49  1  0  0  0
  5 50  1  0  0  0
  6  7  1  0  0  0
  6  8  1  0  0  0
  6 51  1  0  0  0
  7 12  1  0  0  0
  8  9  1  0  0  0
  8 10  1  0  0  0
  8 52  1  0  0  0
  9 53  1  0  0  0
 10 11  1  0  0  0
 10 12  1  0  0  0
 10 54  1  0  0  0
 11 45  1  0  0  0
 12 13  1  0  0  0
 12 55  1  0  0  0
 13 14  1  0  0  0
 13 22  1  0  0  0
 14 15  2  0  0  0
 14 56  1  0  0  0
 15 16  1  0  0  0
 15 76  1  0  0  0
 16 17  1  0  0  0
 16 22  2  0  0  0
 17 18  1  0  0  0
 17 19  2  0  0  0
 18 57  1  0  0  0
 18 58  1  0  0  0
 19 20  1  0  0  0
 19 75  1  0  0  0
 20 21  2  0  0  0
 20 59  1  0  0  0
 21 22  1  0  0  0
 23 24  1  0  0  0
 24 25  2  0  0  0
 24 26  1  0  0  0
 24 27  1  0  0  0
 27 28  1  0  0  0
 28 29  1  0  0  0
 28 60  1  0  0  0
 28 61  1  0  0  0
 29 30  1  0  0  0
 29 31  1  0  0  0
 29 62  1  0  0  0
 30 35  1  0  0  0
 31 32  1  0  0  0
 31 33  1  0  0  0
 31 63  1  0  0  0
 32 64  1  0  0  0
 33 34  1  0  0  0
 33 35  1  0  0  0
 33 65  1  0  0  0
 34 66  1  0  0  0
 35 36  1  0  0  0
 35 67  1  0  0  0
 36 37  1  0  0  0
 36 44  1  0  0  0
 37 38  2  0  0  0
 37 68  1  0  0  0
 38 39  1  0  0  0
 38 42  1  0  0  0
 39 40  2  0  0  0
 39 41  1  0  0  0
 41 69  1  0  0  0
 41 70  1  0  0  0
 42 43  1  0  0  0
 42 71  1  0  0  0
 43 44  2  0  0  0
 43 72  1  0  0  0
 44 73  1  0  0  0
 45 46  2  0  0  0
 45 47  1  0  0  0
 45 48  1  0  0  0
 48 74  1  0  0  0
M  CHG  4   3  -1  15   1  19   1  47  -1
M  END
> <s_m_source_file>
/cbio/jclab/home/rustenburg/PFK/Epik-Ligands/Results/InProgress/NADP NICOTINAMIDE-ADENINE-DINUCLEOTIDE PHOSPHATE/pH_4.0/NADP NICOTINAMIDE-ADENINE-DINUCLEOTIDE PHOSPHATE_pH_4.0-before_epik.mol2

> <i_m_source_file_index>
1

> <r_epik_Ionization_Penalty>
  7.4703

> <r_epik_Ionization_Penalty_Charging>
  2.5221

> <r_epik_Ionization_Penalty_Neutral>
  4.9482

> <r_epik_State_Penalty>
  5.7017

> <r_epik_Charging_Adjusted_Penalty>
8.22377849583785

> <i_epik_Tot_Q>
0

> <i_epik_Tot_abs_Q>
4

> <s_epik_Chemistry_Notes>
This compound has an imine and may undergo hydrolysis. This compound contains an acetal/aminal-like group ( X-CH(R)-Y where X, Y are N, S, or O) that may be acid/base labile, releasing an aldehyde.

$$$$
