@<TRIPOS>MOLECULE
[[5-(6-amino-1,8-dihydropurine-6,8-diylium-7-id-9-yl)-3,4-dihydroxy-tetrahydrofuran-2-yl]methoxy-oxido-phosphoryl]oxy-[[hydroxy(oxido)phosphoryl]methyl]phosphinate
   47    49     1     0     0
SMALL
USER_CHARGES

@<TRIPOS>ATOM
      1 PG         -2.1664    1.3697   -3.5342 P.3       1 ACP        -1.2804
      2 O1G        -3.1240    2.4397   -3.0641 O.co2     1 ACP         0.3195
      3 O2G        -1.2414    0.6453   -2.5835 O.co2     1 ACP         0.3195
      4 O3G        -2.9741    0.2788   -4.4381 O.3       1 ACP         0.0326
      5 PB          0.2023    1.1636   -5.7528 P.3       1 ACP        -1.2804
      6 O1B         0.8230    2.1002   -6.7629 O.co2     1 ACP         0.3195
      7 O2B        -0.3827   -0.1727   -6.1482 O.co2     1 ACP         0.3195
      8 C3B        -1.1214    2.1026   -4.8695 C.3       1 ACP         0.8942
      9 PA          2.7389    0.3751   -4.4298 P.3       1 ACP        -1.1062
     10 O1A         3.6524    1.3383   -5.1562 O.co2     1 ACP         0.3195
     11 O2A         2.7044   -1.0896   -4.8094 O.co2     1 ACP         0.3195
     12 O3A         1.2162    0.9618   -4.4921 O.3       1 ACP         0.4672
     13 O5'         3.0198    0.5138   -2.8245 O.3       1 ACP         0.1618
     14 C5'         2.2816   -0.2918   -1.9206 C.3       1 ACP         0.1504
     15 C4'         2.7248    0.0226   -0.4980 C.3       1 ACP         0.1111
     16 O4'         2.4697    1.4219   -0.2462 O.3       1 ACP        -0.1436
     17 C3'         1.9404   -0.7419    0.5596 C.3       1 ACP         0.1111
     18 O3'         2.7418   -0.8086    1.7389 O.3       1 ACP        -0.2728
     19 C2'         0.7477    0.1630    0.7858 C.3       1 ACP         0.1111
     20 O2'         0.1373   -0.0577    2.0407 O.3       1 ACP        -0.2728
     21 C1'         1.3733    1.5427    0.6747 C.3       1 ACP         0.2693
     22 N9          0.4520    2.5240    0.1767 N.pl3     1 ACP        -0.3222
     23 C8          0.5793    3.3338   -1.1209 C.ar      1 ACP         0.1640
     24 N7         -0.4807    4.1508   -1.2458 N.2       1 ACP        -0.1640
     25 C5         -1.1921    3.8572   -0.1126 C.ar      1 ACP         0.0820
     26 C6         -2.4855    4.5203    0.2163 C.ar      1 ACP         0.1640
     27 N6         -2.9873    5.4319   -0.6020 N.pl3     1 ACP        -0.4916
     28 N1         -3.0414    4.1119    1.3596 N.pl3     1 ACP        -0.4390
     29 C2         -2.4169    3.1071    2.1904 C.ar      1 ACP         0.5691
     30 N3         -1.2928    2.5191    1.9210 N.ar      1 ACP        -0.4283
     31 C4         -0.7202    2.9326    0.7534 C.ar      1 ACP         0.2226
     32 HOG3       -3.7167   -0.2122   -4.0261 H         1 ACP         0.2010
     33 H3B1       -0.6377    2.9812   -4.4282 H         1 ACP        -0.0393
     34 H3B2       -1.8087    2.4615   -5.6436 H         1 ACP        -0.0393
     35 H5'1        1.2153   -0.0781   -2.0454 H         1 ACP        -0.0393
     36 H5'2        2.4645   -1.3454   -2.1547 H         1 ACP        -0.0393
     37 H4'         3.8046   -0.1390   -0.4011 H         1 ACP        -0.0393
     38 H3'         1.6787   -1.7627    0.2719 H         1 ACP        -0.0393
     39 HO3'        2.2231   -1.2979    2.3952 H         1 ACP         0.2010
     40 H2'         0.0002   -0.0084   -0.0014 H         1 ACP        -0.0393
     41 HO2'       -0.1554   -0.9852    2.0577 H         1 ACP         0.2010
     42 H1'         1.7718    1.9211    1.6015 H         1 ACP        -0.0393
     43 H8          1.3565    3.3309   -1.8916 H         1 ACP         0.0000
     44 HN61       -2.4952    5.6785   -1.4487 H         1 ACP         0.2048
     45 HN62       -3.8637    5.8828   -0.3819 H         1 ACP         0.2048
     46 H2         -2.9911    2.8734    3.1000 H         1 ACP        -0.1292
     47 H47        -3.9253    4.5332    1.6302 H         1 ACP         0.2048
@<TRIPOS>BOND
     1    1    2 2
     2    1    3 1
     3    1    4 1
     4    1    8 1
     5    4   32 1
     6    5    6 2
     7    5    7 1
     8    5    8 1
     9    5   12 1
    10    8   33 1
    11    8   34 1
    12    9   10 2
    13    9   11 1
    14    9   12 1
    15    9   13 1
    16   13   14 1
    17   14   15 1
    18   14   35 1
    19   14   36 1
    20   15   16 1
    21   15   17 1
    22   15   37 1
    23   16   21 1
    24   17   18 1
    25   17   19 1
    26   17   38 1
    27   18   39 1
    28   19   20 1
    29   19   21 1
    30   19   40 1
    31   20   41 1
    32   21   22 1
    33   21   42 1
    34   22   23 ar
    35   22   31 ar
    36   23   24 ar
    37   23   43 1
    38   24   25 ar
    39   25   26 ar
    40   25   31 ar
    41   26   27 1
    42   26   28 ar
    43   27   44 1
    44   27   45 1
    45   28   29 ar
    46   28   47 1
    47   29   30 ar
    48   29   46 1
    49   30   31 ar
@<TRIPOS>SUBSTRUCTURE
     1 ACP         1 GROUP 0 A     ****
@<TRIPOS>MOLECULE
[[5-(6-amino-1,8-dihydropurine-6,8-diylium-7-id-9-yl)-3,4-dihydroxy-tetrahydrofuran-2-yl]methoxy-oxido-phosphoryl]oxy-[[hydroxy(oxido)phosphoryl]methyl]phosphinate
   47    49     1     0     0
SMALL
USER_CHARGES

@<TRIPOS>ATOM
      1 PG         -2.1664    1.3697   -3.5342 P.3       1 ACP        -1.2804
      2 O1G        -3.1240    2.4397   -3.0641 O.co2     1 ACP         0.3195
      3 O2G        -1.2414    0.6453   -2.5835 O.co2     1 ACP         0.3195
      4 O3G        -2.9741    0.2788   -4.4381 O.3       1 ACP         0.0326
      5 PB          0.2023    1.1636   -5.7528 P.3       1 ACP        -1.2804
      6 O1B         0.8230    2.1002   -6.7629 O.co2     1 ACP         0.3195
      7 O2B        -0.3827   -0.1727   -6.1482 O.co2     1 ACP         0.3195
      8 C3B        -1.1214    2.1026   -4.8695 C.3       1 ACP         0.8942
      9 PA          2.7389    0.3751   -4.4298 P.3       1 ACP        -1.1062
     10 O1A         3.6524    1.3383   -5.1562 O.co2     1 ACP         0.3195
     11 O2A         2.7044   -1.0896   -4.8094 O.co2     1 ACP         0.3195
     12 O3A         1.2162    0.9618   -4.4921 O.3       1 ACP         0.4672
     13 O5'         3.0198    0.5138   -2.8245 O.3       1 ACP         0.1618
     14 C5'         2.2816   -0.2918   -1.9206 C.3       1 ACP         0.1504
     15 C4'         2.7248    0.0226   -0.4980 C.3       1 ACP         0.1111
     16 O4'         2.4697    1.4219   -0.2462 O.3       1 ACP        -0.1436
     17 C3'         1.9404   -0.7419    0.5596 C.3       1 ACP         0.1111
     18 O3'         2.7418   -0.8086    1.7389 O.3       1 ACP        -0.2728
     19 C2'         0.7477    0.1630    0.7858 C.3       1 ACP         0.1111
     20 O2'         0.1373   -0.0577    2.0407 O.3       1 ACP        -0.2728
     21 C1'         1.3733    1.5427    0.6747 C.3       1 ACP         0.2693
     22 N9          0.4520    2.5240    0.1767 N.pl3     1 ACP        -0.3222
     23 C8         -0.8593    2.9753    0.8343 C.ar      1 ACP         0.1640
     24 N7         -1.4458    3.9121    0.0693 N.2       1 ACP        -0.1640
     25 C5         -0.5581    4.0180   -0.9686 C.ar      1 ACP         0.0820
     26 C6         -0.7663    4.9543   -2.1092 C.ar      1 ACP         0.1640
     27 N6         -1.8429    5.7238   -2.1440 N.pl3     1 ACP        -0.4916
     28 N1          0.1993    4.9263   -3.0311 N.pl3     1 ACP        -0.4390
     29 C2          1.3416    4.0491   -2.9069 C.ar      1 ACP         0.5691
     30 N3          1.5401    3.2284   -1.9225 N.ar      1 ACP        -0.4283
     31 C4          0.5563    3.2529   -0.9772 C.ar      1 ACP         0.2226
     32 HOG3       -3.7167   -0.2122   -4.0261 H         1 ACP         0.2010
     33 H3B1       -0.6377    2.9812   -4.4282 H         1 ACP        -0.0393
     34 H3B2       -1.8087    2.4615   -5.6436 H         1 ACP        -0.0393
     35 H5'1        1.2153   -0.0781   -2.0454 H         1 ACP        -0.0393
     36 H5'2        2.4645   -1.3454   -2.1547 H         1 ACP        -0.0393
     37 H4'         3.8046   -0.1390   -0.4011 H         1 ACP        -0.0393
     38 H3'         1.6787   -1.7627    0.2719 H         1 ACP        -0.0393
     39 HO3'        2.2231   -1.2979    2.3952 H         1 ACP         0.2010
     40 H2'         0.0002   -0.0084   -0.0014 H         1 ACP        -0.0393
     41 HO2'       -0.1554   -0.9852    2.0577 H         1 ACP         0.2010
     42 H1'         1.7718    1.9211    1.6015 H         1 ACP        -0.0393
     43 H8         -1.3368    2.6590    1.7670 H         1 ACP         0.0000
     44 HN61       -2.5230    5.6776   -1.3990 H         1 ACP         0.2048
     45 HN62       -1.9865    6.3594   -2.9154 H         1 ACP         0.2048
     46 H2          2.0529    4.1368   -3.7423 H         1 ACP        -0.1292
     47 H47         0.1054    5.5465   -3.8301 H         1 ACP         0.2048
@<TRIPOS>BOND
     1    1    2 2
     2    1    3 1
     3    1    4 1
     4    1    8 1
     5    4   32 1
     6    5    6 2
     7    5    7 1
     8    5    8 1
     9    5   12 1
    10    8   33 1
    11    8   34 1
    12    9   10 2
    13    9   11 1
    14    9   12 1
    15    9   13 1
    16   13   14 1
    17   14   15 1
    18   14   35 1
    19   14   36 1
    20   15   16 1
    21   15   17 1
    22   15   37 1
    23   16   21 1
    24   17   18 1
    25   17   19 1
    26   17   38 1
    27   18   39 1
    28   19   20 1
    29   19   21 1
    30   19   40 1
    31   20   41 1
    32   21   22 1
    33   21   42 1
    34   22   23 ar
    35   22   31 ar
    36   23   24 ar
    37   23   43 1
    38   24   25 ar
    39   25   26 ar
    40   25   31 ar
    41   26   27 1
    42   26   28 ar
    43   27   44 1
    44   27   45 1
    45   28   29 ar
    46   28   47 1
    47   29   30 ar
    48   29   46 1
    49   30   31 ar
@<TRIPOS>SUBSTRUCTURE
     1 ACP         1 GROUP 0 A     ****
@<TRIPOS>MOLECULE
[[5-(6-amino-1,8-dihydropurine-6,8-diylium-7-id-9-yl)-3,4-dihydroxy-tetrahydrofuran-2-yl]methoxy-oxido-phosphoryl]oxy-[[hydroxy(oxido)phosphoryl]methyl]phosphinate
   47    49     1     0     0
SMALL
USER_CHARGES

@<TRIPOS>ATOM
      1 PG         -1.2226   -4.2640    0.4432 P.3       1 ACP        -1.2804
      2 O1G        -2.0422   -3.9817    1.6806 O.co2     1 ACP         0.3195
      3 O2G         0.2785   -4.0898    0.4165 O.co2     1 ACP         0.3195
      4 O3G        -1.6052   -5.7402   -0.1351 O.3       1 ACP         0.0326
      5 PB         -1.2397   -3.2626   -2.6507 P.3       1 ACP        -1.2804
      6 O1B        -2.0742   -2.3102   -3.4750 O.co2     1 ACP         0.3195
      7 O2B        -1.0448   -4.7086   -3.0447 O.co2     1 ACP         0.3195
      8 C3B        -1.9204   -3.2483   -0.9330 C.3       1 ACP         0.8942
      9 PA          1.5537   -2.4539   -3.2418 P.3       1 ACP        -1.1062
     10 O1A         1.2540   -1.5265   -4.3993 O.co2     1 ACP         0.3195
     11 O2A         2.1054   -3.8415   -3.4886 O.co2     1 ACP         0.3195
     12 O3A         0.2083   -2.5875   -2.3259 O.3       1 ACP         0.4672
     13 O5'         2.5237   -1.6631   -2.1889 O.3       1 ACP         0.1618
     14 C5'         2.2816   -0.2918   -1.9206 C.3       1 ACP         0.1504
     15 C4'         2.7248    0.0226   -0.4980 C.3       1 ACP         0.1111
     16 O4'         2.4697    1.4219   -0.2462 O.3       1 ACP        -0.1436
     17 C3'         1.9404   -0.7419    0.5596 C.3       1 ACP         0.1111
     18 O3'         2.7418   -0.8086    1.7389 O.3       1 ACP        -0.2728
     19 C2'         0.7477    0.1630    0.7858 C.3       1 ACP         0.1111
     20 O2'         0.1373   -0.0577    2.0407 O.3       1 ACP        -0.2728
     21 C1'         1.3733    1.5427    0.6747 C.3       1 ACP         0.2693
     22 N9          0.4520    2.5240    0.1767 N.pl3     1 ACP        -0.3222
     23 C8          0.1798    2.8712   -1.2933 C.ar      1 ACP         0.1640
     24 N7         -0.7494    3.8400   -1.3610 N.2       1 ACP        -0.1640
     25 C5         -1.0173    4.0603   -0.0358 C.ar      1 ACP         0.0820
     26 C6         -2.0105    5.0717    0.4241 C.ar      1 ACP         0.1640
     27 N6         -2.6723    5.7982   -0.4628 N.pl3     1 ACP        -0.4916
     28 N1         -2.1445    5.1522    1.7502 N.pl3     1 ACP        -0.4390
     29 C2         -1.3755    4.3143    2.6426 C.ar      1 ACP         0.5691
     30 N3         -0.5075    3.4292    2.2616 N.ar      1 ACP        -0.4283
     31 C4         -0.3667    3.3425    0.9070 C.ar      1 ACP         0.2226
     32 HOG3       -1.4641   -6.5200    0.4430 H         1 ACP         0.2010
     33 H3B1       -1.8816   -2.2079   -0.5918 H         1 ACP        -0.0393
     34 H3B2       -2.9769   -3.5247   -1.0216 H         1 ACP        -0.0393
     35 H5'1        2.8429    0.3140   -2.6391 H         1 ACP        -0.0393
     36 H5'2        1.2125   -0.0906   -2.0420 H         1 ACP        -0.0393
     37 H4'         3.8046   -0.1390   -0.4011 H         1 ACP        -0.0393
     38 H3'         1.6787   -1.7627    0.2719 H         1 ACP        -0.0393
     39 HO3'        2.2231   -1.2979    2.3952 H         1 ACP         0.2010
     40 H2'         0.0002   -0.0084   -0.0014 H         1 ACP        -0.0393
     41 HO2'       -0.1554   -0.9852    2.0577 H         1 ACP         0.2010
     42 H1'         1.7718    1.9211    1.6015 H         1 ACP        -0.0393
     43 H8          0.6089    2.4651   -2.2147 H         1 ACP         0.0000
     44 HN61       -2.5055    5.6680   -1.4503 H         1 ACP         0.2048
     45 HN62       -3.3462    6.4841   -0.1542 H         1 ACP         0.2048
     46 H2         -1.5932    4.4937    3.7066 H         1 ACP        -0.1292
     47 H47        -2.8098    5.8270    2.1160 H         1 ACP         0.2048
@<TRIPOS>BOND
     1    1    2 2
     2    1    3 1
     3    1    4 1
     4    1    8 1
     5    4   32 1
     6    5    6 2
     7    5    7 1
     8    5    8 1
     9    5   12 1
    10    8   33 1
    11    8   34 1
    12    9   10 2
    13    9   11 1
    14    9   12 1
    15    9   13 1
    16   13   14 1
    17   14   15 1
    18   14   35 1
    19   14   36 1
    20   15   16 1
    21   15   17 1
    22   15   37 1
    23   16   21 1
    24   17   18 1
    25   17   19 1
    26   17   38 1
    27   18   39 1
    28   19   20 1
    29   19   21 1
    30   19   40 1
    31   20   41 1
    32   21   22 1
    33   21   42 1
    34   22   23 ar
    35   22   31 ar
    36   23   24 ar
    37   23   43 1
    38   24   25 ar
    39   25   26 ar
    40   25   31 ar
    41   26   27 1
    42   26   28 ar
    43   27   44 1
    44   27   45 1
    45   28   29 ar
    46   28   47 1
    47   29   30 ar
    48   29   46 1
    49   30   31 ar
@<TRIPOS>SUBSTRUCTURE
     1 ACP         1 GROUP 0 A     ****
@<TRIPOS>MOLECULE
[[5-(6-amino-1,8-dihydropurine-6,8-diylium-7-id-9-yl)-3,4-dihydroxy-tetrahydrofuran-2-yl]methoxy-oxido-phosphoryl]oxy-[[hydroxy(oxido)phosphoryl]methyl]phosphinate
   47    49     1     0     0
SMALL
USER_CHARGES

@<TRIPOS>ATOM
      1 PG          3.8223   -4.5880   -4.6489 P.3       1 ACP        -1.2804
      2 O1G         3.9653   -5.7610   -5.5904 O.co2     1 ACP         0.3195
      3 O2G         2.4743   -4.0105   -4.2835 O.co2     1 ACP         0.3195
      4 O3G         4.6720   -4.8791   -3.2876 O.3       1 ACP         0.0326
      5 PB          4.9905   -1.5569   -4.4967 P.3       1 ACP        -1.2804
      6 O1B         5.9144   -0.7099   -5.3403 O.co2     1 ACP         0.3195
      7 O2B         5.2443   -1.8053   -3.0276 O.co2     1 ACP         0.3195
      8 C3B         4.8515   -3.2069   -5.3165 C.3       1 ACP         0.8942
      9 PA          2.7389    0.3751   -4.4298 P.3       1 ACP        -1.1062
     10 O1A         1.2481    0.2227   -4.6393 O.co2     1 ACP         0.3195
     11 O2A         3.5164    1.4419   -5.1701 O.co2     1 ACP         0.3195
     12 O3A         3.4492   -1.0690   -4.7073 O.3       1 ACP         0.4672
     13 O5'         3.0198    0.5138   -2.8245 O.3       1 ACP         0.1618
     14 C5'         2.2816   -0.2918   -1.9206 C.3       1 ACP         0.1504
     15 C4'         2.7248    0.0226   -0.4980 C.3       1 ACP         0.1111
     16 O4'         2.4697    1.4219   -0.2462 O.3       1 ACP        -0.1436
     17 C3'         1.9404   -0.7419    0.5596 C.3       1 ACP         0.1111
     18 O3'         2.7418   -0.8086    1.7389 O.3       1 ACP        -0.2728
     19 C2'         0.7477    0.1630    0.7858 C.3       1 ACP         0.1111
     20 O2'         0.1373   -0.0577    2.0407 O.3       1 ACP        -0.2728
     21 C1'         1.3733    1.5427    0.6747 C.3       1 ACP         0.2693
     22 N9          0.4520    2.5240    0.1767 N.pl3     1 ACP        -0.3222
     23 C8          0.1798    2.8712   -1.2933 C.ar      1 ACP         0.1640
     24 N7         -0.7494    3.8400   -1.3610 N.2       1 ACP        -0.1640
     25 C5         -1.0173    4.0603   -0.0358 C.ar      1 ACP         0.0820
     26 C6         -2.0105    5.0717    0.4241 C.ar      1 ACP         0.1640
     27 N6         -2.6723    5.7982   -0.4628 N.pl3     1 ACP        -0.4916
     28 N1         -2.1445    5.1522    1.7502 N.pl3     1 ACP        -0.4390
     29 C2         -1.3755    4.3143    2.6426 C.ar      1 ACP         0.5691
     30 N3         -0.5075    3.4292    2.2616 N.ar      1 ACP        -0.4283
     31 C4         -0.3667    3.3425    0.9070 C.ar      1 ACP         0.2226
     32 HOG3        4.4370   -5.6641   -2.7484 H         1 ACP         0.2010
     33 H3B1        4.4855   -3.0196   -6.3322 H         1 ACP        -0.0393
     34 H3B2        5.8738   -3.5915   -5.4026 H         1 ACP        -0.0393
     35 H5'1        1.2153   -0.0781   -2.0454 H         1 ACP        -0.0393
     36 H5'2        2.4645   -1.3454   -2.1547 H         1 ACP        -0.0393
     37 H4'         3.8046   -0.1390   -0.4011 H         1 ACP        -0.0393
     38 H3'         1.6787   -1.7627    0.2719 H         1 ACP        -0.0393
     39 HO3'        2.2231   -1.2979    2.3952 H         1 ACP         0.2010
     40 H2'         0.0002   -0.0084   -0.0014 H         1 ACP        -0.0393
     41 HO2'       -0.6132    0.5577    2.1063 H         1 ACP         0.2010
     42 H1'         1.7718    1.9211    1.6015 H         1 ACP        -0.0393
     43 H8          0.6089    2.4651   -2.2147 H         1 ACP         0.0000
     44 HN61       -2.5055    5.6680   -1.4503 H         1 ACP         0.2048
     45 HN62       -3.3462    6.4841   -0.1542 H         1 ACP         0.2048
     46 H2         -1.5932    4.4937    3.7066 H         1 ACP        -0.1292
     47 H47        -2.8098    5.8270    2.1160 H         1 ACP         0.2048
@<TRIPOS>BOND
     1    1    2 2
     2    1    3 1
     3    1    4 1
     4    1    8 1
     5    4   32 1
     6    5    6 2
     7    5    7 1
     8    5    8 1
     9    5   12 1
    10    8   33 1
    11    8   34 1
    12    9   10 2
    13    9   11 1
    14    9   12 1
    15    9   13 1
    16   13   14 1
    17   14   15 1
    18   14   35 1
    19   14   36 1
    20   15   16 1
    21   15   17 1
    22   15   37 1
    23   16   21 1
    24   17   18 1
    25   17   19 1
    26   17   38 1
    27   18   39 1
    28   19   20 1
    29   19   21 1
    30   19   40 1
    31   20   41 1
    32   21   22 1
    33   21   42 1
    34   22   23 ar
    35   22   31 ar
    36   23   24 ar
    37   23   43 1
    38   24   25 ar
    39   25   26 ar
    40   25   31 ar
    41   26   27 1
    42   26   28 ar
    43   27   44 1
    44   27   45 1
    45   28   29 ar
    46   28   47 1
    47   29   30 ar
    48   29   46 1
    49   30   31 ar
@<TRIPOS>SUBSTRUCTURE
     1 ACP         1 GROUP 0 A     ****
@<TRIPOS>MOLECULE
[[5-(6-amino-1,8-dihydropurine-6,8-diylium-7-id-9-yl)-3,4-dihydroxy-tetrahydrofuran-2-yl]methoxy-oxido-phosphoryl]oxy-[[hydroxy(oxido)phosphoryl]methyl]phosphinate
   47    49     1     0     0
SMALL
USER_CHARGES

@<TRIPOS>ATOM
      1 PG          0.7491    4.1646   -4.4933 P.3       1 ACP        -1.2804
      2 O1G         1.4947    3.6465   -3.2856 O.co2     1 ACP         0.3195
      3 O2G        -0.3221    5.2250   -4.3823 O.co2     1 ACP         0.3195
      4 O3G         1.8187    4.5962   -5.6464 O.3       1 ACP         0.0326
      5 PB          0.9951    1.3104   -6.0322 P.3       1 ACP        -1.2804
      6 O1B         1.9390    1.8846   -7.0629 O.co2     1 ACP         0.3195
      7 O2B         0.0321    0.1920   -6.3581 O.co2     1 ACP         0.3195
      8 C3B         0.0001    2.7116   -5.3534 C.3       1 ACP         0.8942
      9 PA          3.0653   -0.0868   -4.4294 P.3       1 ACP        -1.1062
     10 O1A         4.2789    0.4515   -5.1554 O.co2     1 ACP         0.3195
     11 O2A         2.5799   -1.4982   -4.6803 O.co2     1 ACP         0.3195
     12 O3A         1.8195    0.9401   -4.6753 O.3       1 ACP         0.4672
     13 O5'         3.2883    0.1336   -2.8242 O.3       1 ACP         0.1618
     14 C5'         2.2816   -0.2918   -1.9206 C.3       1 ACP         0.1504
     15 C4'         2.7248    0.0226   -0.4980 C.3       1 ACP         0.1111
     16 O4'         2.4697    1.4219   -0.2462 O.3       1 ACP        -0.1436
     17 C3'         1.9404   -0.7419    0.5596 C.3       1 ACP         0.1111
     18 O3'         2.7418   -0.8086    1.7389 O.3       1 ACP        -0.2728
     19 C2'         0.7477    0.1630    0.7858 C.3       1 ACP         0.1111
     20 O2'         0.1373   -0.0577    2.0407 O.3       1 ACP        -0.2728
     21 C1'         1.3733    1.5427    0.6747 C.3       1 ACP         0.2693
     22 N9          0.4520    2.5240    0.1767 N.pl3     1 ACP        -0.3222
     23 C8         -0.3054    2.4845   -1.1576 C.ar      1 ACP         0.1640
     24 N7         -1.0755    3.5806   -1.2691 N.2       1 ACP        -0.1640
     25 C5         -0.8043    4.2306   -0.0942 C.ar      1 ACP         0.0820
     26 C6         -1.4324    5.5335    0.2646 C.ar      1 ACP         0.1640
     27 N6         -2.2885    6.1055   -0.5675 N.pl3     1 ACP        -0.4916
     28 N1         -1.0537    6.0229    1.4478 N.pl3     1 ACP        -0.4390
     29 C2         -0.1096    5.3242    2.2908 C.ar      1 ACP         0.5691
     30 N3          0.4468    4.1904    1.9960 N.ar      1 ACP        -0.4283
     31 C4          0.0631    3.6855    0.7877 C.ar      1 ACP         0.2226
     32 HOG3        2.4751    5.2946   -5.4377 H         1 ACP         0.2010
     33 H3B1       -0.5754    3.1191   -6.1920 H         1 ACP        -0.0393
     34 H3B2       -0.7141    2.2663   -4.6519 H         1 ACP        -0.0393
     35 H5'1        1.3500    0.2325   -2.1560 H         1 ACP        -0.0393
     36 H5'2        2.1267   -1.3683   -2.0444 H         1 ACP        -0.0393
     37 H4'         3.8046   -0.1390   -0.4011 H         1 ACP        -0.0393
     38 H3'         1.6787   -1.7627    0.2719 H         1 ACP        -0.0393
     39 HO3'        2.2231   -1.2979    2.3952 H         1 ACP         0.2010
     40 H2'         0.0002   -0.0084   -0.0014 H         1 ACP        -0.0393
     41 HO2'       -0.6132    0.5577    2.1063 H         1 ACP         0.2010
     42 H1'         1.7718    1.9211    1.6015 H         1 ACP        -0.0393
     43 H8         -0.2991    1.7413   -1.9611 H         1 ACP         0.0000
     44 HN61       -2.5167    5.6603   -1.4447 H         1 ACP         0.2048
     45 HN62       -2.7159    6.9882   -0.3270 H         1 ACP         0.2048
     46 H2          0.1059    5.8491    3.2340 H         1 ACP        -0.1292
     47 H47        -1.4532    6.9099    1.7401 H         1 ACP         0.2048
@<TRIPOS>BOND
     1    1    2 2
     2    1    3 1
     3    1    4 1
     4    1    8 1
     5    4   32 1
     6    5    6 2
     7    5    7 1
     8    5    8 1
     9    5   12 1
    10    8   33 1
    11    8   34 1
    12    9   10 2
    13    9   11 1
    14    9   12 1
    15    9   13 1
    16   13   14 1
    17   14   15 1
    18   14   35 1
    19   14   36 1
    20   15   16 1
    21   15   17 1
    22   15   37 1
    23   16   21 1
    24   17   18 1
    25   17   19 1
    26   17   38 1
    27   18   39 1
    28   19   20 1
    29   19   21 1
    30   19   40 1
    31   20   41 1
    32   21   22 1
    33   21   42 1
    34   22   23 ar
    35   22   31 ar
    36   23   24 ar
    37   23   43 1
    38   24   25 ar
    39   25   26 ar
    40   25   31 ar
    41   26   27 1
    42   26   28 ar
    43   27   44 1
    44   27   45 1
    45   28   29 ar
    46   28   47 1
    47   29   30 ar
    48   29   46 1
    49   30   31 ar
@<TRIPOS>SUBSTRUCTURE
     1 ACP         1 GROUP 0 A     ****
@<TRIPOS>MOLECULE
[[5-(6-amino-1,8-dihydropurine-6,8-diylium-7-id-9-yl)-3,4-dihydroxy-tetrahydrofuran-2-yl]methoxy-oxido-phosphoryl]oxy-[[hydroxy(oxido)phosphoryl]methyl]phosphinate
   47    49     1     0     0
SMALL
USER_CHARGES

@<TRIPOS>ATOM
      1 PG         -2.7805   -1.0031   -3.3844 P.3       1 ACP        -1.2804
      2 O1G        -4.1041   -1.1040   -4.1060 O.co2     1 ACP         0.3195
      3 O2G        -1.6749   -0.0880   -3.8580 O.co2     1 ACP         0.3195
      4 O3G        -3.0476   -0.7500   -1.7955 O.3       1 ACP         0.0326
      5 PB         -0.4560   -3.0822   -2.4629 P.3       1 ACP        -1.2804
      6 O1B        -0.2322   -4.5724   -2.5718 O.co2     1 ACP         0.3195
      7 O2B        -0.4376   -2.3610   -1.1347 O.co2     1 ACP         0.3195
      8 C3B        -2.0755   -2.7066   -3.2693 C.3       1 ACP         0.8942
      9 PA          2.1362   -2.2698   -3.6575 P.3       1 ACP        -1.1062
     10 O1A         2.5073   -1.2450   -4.7072 O.co2     1 ACP         0.3195
     11 O2A         2.6360   -3.6946   -3.7605 O.co2     1 ACP         0.3195
     12 O3A         0.5093   -2.3009   -3.5192 O.3       1 ACP         0.4672
     13 O5'         2.5237   -1.6631   -2.1889 O.3       1 ACP         0.1618
     14 C5'         2.2816   -0.2918   -1.9206 C.3       1 ACP         0.1504
     15 C4'         2.7248    0.0226   -0.4980 C.3       1 ACP         0.1111
     16 O4'         2.4697    1.4219   -0.2462 O.3       1 ACP        -0.1436
     17 C3'         1.9404   -0.7419    0.5596 C.3       1 ACP         0.1111
     18 O3'         2.7418   -0.8086    1.7389 O.3       1 ACP        -0.2728
     19 C2'         0.7477    0.1630    0.7858 C.3       1 ACP         0.1111
     20 O2'         0.1373   -0.0577    2.0407 O.3       1 ACP        -0.2728
     21 C1'         1.3733    1.5427    0.6747 C.3       1 ACP         0.2693
     22 N9          0.4520    2.5240    0.1767 N.pl3     1 ACP        -0.3222
     23 C8          0.1798    2.8712   -1.2933 C.ar      1 ACP         0.1640
     24 N7         -0.7494    3.8400   -1.3610 N.2       1 ACP        -0.1640
     25 C5         -1.0173    4.0603   -0.0358 C.ar      1 ACP         0.0820
     26 C6         -2.0105    5.0717    0.4241 C.ar      1 ACP         0.1640
     27 N6         -2.6723    5.7982   -0.4628 N.pl3     1 ACP        -0.4916
     28 N1         -2.1445    5.1522    1.7502 N.pl3     1 ACP        -0.4390
     29 C2         -1.3755    4.3143    2.6426 C.ar      1 ACP         0.5691
     30 N3         -0.5075    3.4292    2.2616 N.ar      1 ACP        -0.4283
     31 C4         -0.3667    3.3425    0.9070 C.ar      1 ACP         0.2226
     32 HOG3       -3.5423    0.0532   -1.5265 H         1 ACP         0.2010
     33 H3B1       -2.0031   -3.0750   -4.2986 H         1 ACP        -0.0393
     34 H3B2       -2.8223   -3.3204   -2.7536 H         1 ACP        -0.0393
     35 H5'1        2.8429    0.3140   -2.6391 H         1 ACP        -0.0393
     36 H5'2        1.2125   -0.0906   -2.0420 H         1 ACP        -0.0393
     37 H4'         3.8046   -0.1390   -0.4011 H         1 ACP        -0.0393
     38 H3'         1.6787   -1.7627    0.2719 H         1 ACP        -0.0393
     39 HO3'        2.2231   -1.2979    2.3952 H         1 ACP         0.2010
     40 H2'         0.0002   -0.0084   -0.0014 H         1 ACP        -0.0393
     41 HO2'       -0.6132    0.5577    2.1063 H         1 ACP         0.2010
     42 H1'         1.7718    1.9211    1.6015 H         1 ACP        -0.0393
     43 H8          0.6089    2.4651   -2.2147 H         1 ACP         0.0000
     44 HN61       -2.5055    5.6680   -1.4503 H         1 ACP         0.2048
     45 HN62       -3.3462    6.4841   -0.1542 H         1 ACP         0.2048
     46 H2         -1.5932    4.4937    3.7066 H         1 ACP        -0.1292
     47 H47        -2.8098    5.8270    2.1160 H         1 ACP         0.2048
@<TRIPOS>BOND
     1    1    2 2
     2    1    3 1
     3    1    4 1
     4    1    8 1
     5    4   32 1
     6    5    6 2
     7    5    7 1
     8    5    8 1
     9    5   12 1
    10    8   33 1
    11    8   34 1
    12    9   10 2
    13    9   11 1
    14    9   12 1
    15    9   13 1
    16   13   14 1
    17   14   15 1
    18   14   35 1
    19   14   36 1
    20   15   16 1
    21   15   17 1
    22   15   37 1
    23   16   21 1
    24   17   18 1
    25   17   19 1
    26   17   38 1
    27   18   39 1
    28   19   20 1
    29   19   21 1
    30   19   40 1
    31   20   41 1
    32   21   22 1
    33   21   42 1
    34   22   23 ar
    35   22   31 ar
    36   23   24 ar
    37   23   43 1
    38   24   25 ar
    39   25   26 ar
    40   25   31 ar
    41   26   27 1
    42   26   28 ar
    43   27   44 1
    44   27   45 1
    45   28   29 ar
    46   28   47 1
    47   29   30 ar
    48   29   46 1
    49   30   31 ar
@<TRIPOS>SUBSTRUCTURE
     1 ACP         1 GROUP 0 A     ****
@<TRIPOS>MOLECULE
[[5-(6-amino-1,8-dihydropurine-6,8-diylium-7-id-9-yl)-3,4-dihydroxy-tetrahydrofuran-2-yl]methoxy-oxido-phosphoryl]oxy-[[hydroxy(oxido)phosphoryl]methyl]phosphinate
   47    49     1     0     0
SMALL
USER_CHARGES

@<TRIPOS>ATOM
      1 PG          4.3280    1.5837   -5.6043 P.3       1 ACP        -1.2804
      2 O1G         2.8306    1.3831   -5.6289 O.co2     1 ACP         0.3195
      3 O2G         5.0311    2.5061   -6.5734 O.co2     1 ACP         0.3195
      4 O3G         4.8028    1.9341   -4.0840 O.3       1 ACP         0.0326
      5 PB          4.8472   -1.4445   -4.5386 P.3       1 ACP        -1.2804
      6 O1B         5.3187   -0.9488   -3.1915 O.co2     1 ACP         0.3195
      7 O2B         5.3827   -2.7133   -5.1613 O.co2     1 ACP         0.3195
      8 C3B         5.1171   -0.0797   -5.7546 C.3       1 ACP         0.8942
      9 PA          2.1362   -2.2698   -3.6575 P.3       1 ACP        -1.1062
     10 O1A         2.4953   -3.7397   -3.6734 O.co2     1 ACP         0.3195
     11 O2A         0.7453   -1.8118   -4.0395 O.co2     1 ACP         0.3195
     12 O3A         3.2175   -1.4646   -4.5792 O.3       1 ACP         0.4672
     13 O5'         2.5237   -1.6631   -2.1889 O.3       1 ACP         0.1618
     14 C5'         2.2816   -0.2918   -1.9206 C.3       1 ACP         0.1504
     15 C4'         2.7248    0.0226   -0.4980 C.3       1 ACP         0.1111
     16 O4'         2.4697    1.4219   -0.2462 O.3       1 ACP        -0.1436
     17 C3'         1.9404   -0.7419    0.5596 C.3       1 ACP         0.1111
     18 O3'         2.7418   -0.8086    1.7389 O.3       1 ACP        -0.2728
     19 C2'         0.7477    0.1630    0.7858 C.3       1 ACP         0.1111
     20 O2'         0.1373   -0.0577    2.0407 O.3       1 ACP        -0.2728
     21 C1'         1.3733    1.5427    0.6747 C.3       1 ACP         0.2693
     22 N9          0.4520    2.5240    0.1767 N.pl3     1 ACP        -0.3222
     23 C8          0.1798    2.8712   -1.2933 C.ar      1 ACP         0.1640
     24 N7         -0.7494    3.8400   -1.3610 N.2       1 ACP        -0.1640
     25 C5         -1.0173    4.0603   -0.0358 C.ar      1 ACP         0.0820
     26 C6         -2.0105    5.0717    0.4241 C.ar      1 ACP         0.1640
     27 N6         -2.6723    5.7982   -0.4628 N.pl3     1 ACP        -0.4916
     28 N1         -2.1445    5.1522    1.7502 N.pl3     1 ACP        -0.4390
     29 C2         -1.3755    4.3143    2.6426 C.ar      1 ACP         0.5691
     30 N3         -0.5075    3.4292    2.2616 N.ar      1 ACP        -0.4283
     31 C4         -0.3667    3.3425    0.9070 C.ar      1 ACP         0.2226
     32 HOG3        4.4350    2.7342   -3.6517 H         1 ACP         0.2010
     33 H3B1        6.1976    0.0991   -5.7865 H         1 ACP        -0.0393
     34 H3B2        4.8223   -0.4791   -6.7313 H         1 ACP        -0.0393
     35 H5'1        2.8429    0.3140   -2.6391 H         1 ACP        -0.0393
     36 H5'2        1.2125   -0.0906   -2.0420 H         1 ACP        -0.0393
     37 H4'         3.8046   -0.1390   -0.4011 H         1 ACP        -0.0393
     38 H3'         1.6787   -1.7627    0.2719 H         1 ACP        -0.0393
     39 HO3'        2.2231   -1.2979    2.3952 H         1 ACP         0.2010
     40 H2'         0.0002   -0.0084   -0.0014 H         1 ACP        -0.0393
     41 HO2'       -0.6132    0.5577    2.1063 H         1 ACP         0.2010
     42 H1'         1.7718    1.9211    1.6015 H         1 ACP        -0.0393
     43 H8          0.6089    2.4651   -2.2147 H         1 ACP         0.0000
     44 HN61       -2.5055    5.6680   -1.4503 H         1 ACP         0.2048
     45 HN62       -3.3462    6.4841   -0.1542 H         1 ACP         0.2048
     46 H2         -1.5932    4.4937    3.7066 H         1 ACP        -0.1292
     47 H47        -2.8098    5.8270    2.1160 H         1 ACP         0.2048
@<TRIPOS>BOND
     1    1    2 2
     2    1    3 1
     3    1    4 1
     4    1    8 1
     5    4   32 1
     6    5    6 2
     7    5    7 1
     8    5    8 1
     9    5   12 1
    10    8   33 1
    11    8   34 1
    12    9   10 2
    13    9   11 1
    14    9   12 1
    15    9   13 1
    16   13   14 1
    17   14   15 1
    18   14   35 1
    19   14   36 1
    20   15   16 1
    21   15   17 1
    22   15   37 1
    23   16   21 1
    24   17   18 1
    25   17   19 1
    26   17   38 1
    27   18   39 1
    28   19   20 1
    29   19   21 1
    30   19   40 1
    31   20   41 1
    32   21   22 1
    33   21   42 1
    34   22   23 ar
    35   22   31 ar
    36   23   24 ar
    37   23   43 1
    38   24   25 ar
    39   25   26 ar
    40   25   31 ar
    41   26   27 1
    42   26   28 ar
    43   27   44 1
    44   27   45 1
    45   28   29 ar
    46   28   47 1
    47   29   30 ar
    48   29   46 1
    49   30   31 ar
@<TRIPOS>SUBSTRUCTURE
     1 ACP         1 GROUP 0 A     ****
@<TRIPOS>MOLECULE
[[5-(6-amino-1,8-dihydropurine-6,8-diylium-7-id-9-yl)-3,4-dihydroxy-tetrahydrofuran-2-yl]methoxy-oxido-phosphoryl]oxy-[[hydroxy(oxido)phosphoryl]methyl]phosphinate
   47    49     1     0     0
SMALL
USER_CHARGES

@<TRIPOS>ATOM
      1 PG          5.9547   -3.5623   -4.5288 P.3       1 ACP        -1.2804
      2 O1G         6.1565   -4.9799   -4.0467 O.co2     1 ACP         0.3195
      3 O2G         6.0675   -2.3744   -3.6012 O.co2     1 ACP         0.3195
      4 O3G         6.8734   -3.3038   -5.8513 O.3       1 ACP         0.0326
      5 PB          3.6071   -1.9329   -6.0810 P.3       1 ACP        -1.2804
      6 O1B         2.2415   -2.2678   -6.6338 O.co2     1 ACP         0.3195
      7 O2B         4.6943   -1.3247   -6.9368 O.co2     1 ACP         0.3195
      8 C3B         4.2949   -3.4771   -5.3350 C.3       1 ACP         0.8942
      9 PA          2.7389    0.3751   -4.4298 P.3       1 ACP        -1.1062
     10 O1A         1.2481    0.2227   -4.6393 O.co2     1 ACP         0.3195
     11 O2A         3.5164    1.4419   -5.1701 O.co2     1 ACP         0.3195
     12 O3A         3.4492   -1.0690   -4.7073 O.3       1 ACP         0.4672
     13 O5'         3.0198    0.5138   -2.8245 O.3       1 ACP         0.1618
     14 C5'         2.2816   -0.2918   -1.9206 C.3       1 ACP         0.1504
     15 C4'         2.7248    0.0226   -0.4980 C.3       1 ACP         0.1111
     16 O4'         2.4697    1.4219   -0.2462 O.3       1 ACP        -0.1436
     17 C3'         1.9404   -0.7419    0.5596 C.3       1 ACP         0.1111
     18 O3'         2.7418   -0.8086    1.7389 O.3       1 ACP        -0.2728
     19 C2'         0.7477    0.1630    0.7858 C.3       1 ACP         0.1111
     20 O2'         0.1373   -0.0577    2.0407 O.3       1 ACP        -0.2728
     21 C1'         1.3733    1.5427    0.6747 C.3       1 ACP         0.2693
     22 N9          0.4520    2.5240    0.1767 N.pl3     1 ACP        -0.3222
     23 C8          0.1798    2.8712   -1.2933 C.ar      1 ACP         0.1640
     24 N7         -0.7494    3.8400   -1.3610 N.2       1 ACP        -0.1640
     25 C5         -1.0173    4.0603   -0.0358 C.ar      1 ACP         0.0820
     26 C6         -2.0105    5.0717    0.4241 C.ar      1 ACP         0.1640
     27 N6         -2.6723    5.7982   -0.4628 N.pl3     1 ACP        -0.4916
     28 N1         -2.1445    5.1522    1.7502 N.pl3     1 ACP        -0.4390
     29 C2         -1.3755    4.3143    2.6426 C.ar      1 ACP         0.5691
     30 N3         -0.5075    3.4292    2.2616 N.ar      1 ACP        -0.4283
     31 C4         -0.3667    3.3425    0.9070 C.ar      1 ACP         0.2226
     32 HOG3        7.8458   -3.4064   -5.7728 H         1 ACP         0.2010
     33 H3B1        3.5732   -3.8052   -4.5787 H         1 ACP        -0.0393
     34 H3B2        4.2959   -4.2271   -6.1338 H         1 ACP        -0.0393
     35 H5'1        1.2153   -0.0781   -2.0454 H         1 ACP        -0.0393
     36 H5'2        2.4645   -1.3454   -2.1547 H         1 ACP        -0.0393
     37 H4'         3.8046   -0.1390   -0.4011 H         1 ACP        -0.0393
     38 H3'         1.6787   -1.7627    0.2719 H         1 ACP        -0.0393
     39 HO3'        2.2231   -1.2979    2.3952 H         1 ACP         0.2010
     40 H2'         0.0002   -0.0084   -0.0014 H         1 ACP        -0.0393
     41 HO2'       -0.6132    0.5577    2.1063 H         1 ACP         0.2010
     42 H1'         1.7718    1.9211    1.6015 H         1 ACP        -0.0393
     43 H8          0.6089    2.4651   -2.2147 H         1 ACP         0.0000
     44 HN61       -2.5055    5.6680   -1.4503 H         1 ACP         0.2048
     45 HN62       -3.3462    6.4841   -0.1542 H         1 ACP         0.2048
     46 H2         -1.5932    4.4937    3.7066 H         1 ACP        -0.1292
     47 H47        -2.8098    5.8270    2.1160 H         1 ACP         0.2048
@<TRIPOS>BOND
     1    1    2 2
     2    1    3 1
     3    1    4 1
     4    1    8 1
     5    4   32 1
     6    5    6 2
     7    5    7 1
     8    5    8 1
     9    5   12 1
    10    8   33 1
    11    8   34 1
    12    9   10 2
    13    9   11 1
    14    9   12 1
    15    9   13 1
    16   13   14 1
    17   14   15 1
    18   14   35 1
    19   14   36 1
    20   15   16 1
    21   15   17 1
    22   15   37 1
    23   16   21 1
    24   17   18 1
    25   17   19 1
    26   17   38 1
    27   18   39 1
    28   19   20 1
    29   19   21 1
    30   19   40 1
    31   20   41 1
    32   21   22 1
    33   21   42 1
    34   22   23 ar
    35   22   31 ar
    36   23   24 ar
    37   23   43 1
    38   24   25 ar
    39   25   26 ar
    40   25   31 ar
    41   26   27 1
    42   26   28 ar
    43   27   44 1
    44   27   45 1
    45   28   29 ar
    46   28   47 1
    47   29   30 ar
    48   29   46 1
    49   30   31 ar
@<TRIPOS>SUBSTRUCTURE
     1 ACP         1 GROUP 0 A     ****
@<TRIPOS>MOLECULE
[[5-(6-amino-1,8-dihydropurine-6,8-diylium-7-id-9-yl)-3,4-dihydroxy-tetrahydrofuran-2-yl]methoxy-oxido-phosphoryl]oxy-[[hydroxy(oxido)phosphoryl]methyl]phosphinate
   47    49     1     0     0
SMALL
USER_CHARGES

@<TRIPOS>ATOM
      1 PG          5.1701   -4.0155   -2.2378 P.3       1 ACP        -1.2804
      2 O1G         4.2065   -4.9900   -2.8740 O.co2     1 ACP         0.3195
      3 O2G         4.7094   -2.9353   -1.2865 O.co2     1 ACP         0.3195
      4 O3G         6.4061   -4.8382   -1.5631 O.3       1 ACP         0.0326
      5 PB          5.3023   -2.1900   -4.9258 P.3       1 ACP        -1.2804
      6 O1B         4.3452   -3.1009   -5.6584 O.co2     1 ACP         0.3195
      7 O2B         6.3947   -1.4286   -5.6409 O.co2     1 ACP         0.3195
      8 C3B         6.1089   -3.1897   -3.5975 C.3       1 ACP         0.8942
      9 PA          3.3324   -0.0529   -4.3266 P.3       1 ACP        -1.1062
     10 O1A         2.0985   -0.7700   -4.8296 O.co2     1 ACP         0.3195
     11 O2A         3.9793    1.0390   -5.1511 O.co2     1 ACP         0.3195
     12 O3A         4.4675   -1.1702   -3.9660 O.3       1 ACP         0.4672
     13 O5'         3.0198    0.5138   -2.8245 O.3       1 ACP         0.1618
     14 C5'         2.2816   -0.2918   -1.9206 C.3       1 ACP         0.1504
     15 C4'         2.7248    0.0226   -0.4980 C.3       1 ACP         0.1111
     16 O4'         2.4697    1.4219   -0.2462 O.3       1 ACP        -0.1436
     17 C3'         1.9404   -0.7419    0.5596 C.3       1 ACP         0.1111
     18 O3'         2.7418   -0.8086    1.7389 O.3       1 ACP        -0.2728
     19 C2'         0.7477    0.1630    0.7858 C.3       1 ACP         0.1111
     20 O2'         0.1373   -0.0577    2.0407 O.3       1 ACP        -0.2728
     21 C1'         1.3733    1.5427    0.6747 C.3       1 ACP         0.2693
     22 N9          0.4520    2.5240    0.1767 N.pl3     1 ACP        -0.3222
     23 C8          0.1798    2.8712   -1.2933 C.ar      1 ACP         0.1640
     24 N7         -0.7494    3.8400   -1.3610 N.2       1 ACP        -0.1640
     25 C5         -1.0173    4.0603   -0.0358 C.ar      1 ACP         0.0820
     26 C6         -2.0105    5.0717    0.4241 C.ar      1 ACP         0.1640
     27 N6         -2.6723    5.7982   -0.4628 N.pl3     1 ACP        -0.4916
     28 N1         -2.1445    5.1522    1.7502 N.pl3     1 ACP        -0.4390
     29 C2         -1.3755    4.3143    2.6426 C.ar      1 ACP         0.5691
     30 N3         -0.5075    3.4292    2.2616 N.ar      1 ACP        -0.4283
     31 C4         -0.3667    3.3425    0.9070 C.ar      1 ACP         0.2226
     32 HOG3        6.2048   -5.4893   -0.8575 H         1 ACP         0.2010
     33 H3B1        6.6709   -3.9828   -4.1032 H         1 ACP        -0.0393
     34 H3B2        6.8376   -2.5271   -3.1174 H         1 ACP        -0.0393
     35 H5'1        1.2153   -0.0781   -2.0454 H         1 ACP        -0.0393
     36 H5'2        2.4645   -1.3454   -2.1547 H         1 ACP        -0.0393
     37 H4'         3.8046   -0.1390   -0.4011 H         1 ACP        -0.0393
     38 H3'         1.6787   -1.7627    0.2719 H         1 ACP        -0.0393
     39 HO3'        2.2231   -1.2979    2.3952 H         1 ACP         0.2010
     40 H2'         0.0002   -0.0084   -0.0014 H         1 ACP        -0.0393
     41 HO2'       -0.6132    0.5577    2.1063 H         1 ACP         0.2010
     42 H1'         1.7718    1.9211    1.6015 H         1 ACP        -0.0393
     43 H8          0.6089    2.4651   -2.2147 H         1 ACP         0.0000
     44 HN61       -2.5055    5.6680   -1.4503 H         1 ACP         0.2048
     45 HN62       -3.3462    6.4841   -0.1542 H         1 ACP         0.2048
     46 H2         -1.5932    4.4937    3.7066 H         1 ACP        -0.1292
     47 H47        -2.8098    5.8270    2.1160 H         1 ACP         0.2048
@<TRIPOS>BOND
     1    1    2 2
     2    1    3 1
     3    1    4 1
     4    1    8 1
     5    4   32 1
     6    5    6 2
     7    5    7 1
     8    5    8 1
     9    5   12 1
    10    8   33 1
    11    8   34 1
    12    9   10 2
    13    9   11 1
    14    9   12 1
    15    9   13 1
    16   13   14 1
    17   14   15 1
    18   14   35 1
    19   14   36 1
    20   15   16 1
    21   15   17 1
    22   15   37 1
    23   16   21 1
    24   17   18 1
    25   17   19 1
    26   17   38 1
    27   18   39 1
    28   19   20 1
    29   19   21 1
    30   19   40 1
    31   20   41 1
    32   21   22 1
    33   21   42 1
    34   22   23 ar
    35   22   31 ar
    36   23   24 ar
    37   23   43 1
    38   24   25 ar
    39   25   26 ar
    40   25   31 ar
    41   26   27 1
    42   26   28 ar
    43   27   44 1
    44   27   45 1
    45   28   29 ar
    46   28   47 1
    47   29   30 ar
    48   29   46 1
    49   30   31 ar
@<TRIPOS>SUBSTRUCTURE
     1 ACP         1 GROUP 0 A     ****
@<TRIPOS>MOLECULE
[[5-(6-amino-1,8-dihydropurine-6,8-diylium-7-id-9-yl)-3,4-dihydroxy-tetrahydrofuran-2-yl]methoxy-oxido-phosphoryl]oxy-[[hydroxy(oxido)phosphoryl]methyl]phosphinate
   47    49     1     0     0
SMALL
USER_CHARGES

@<TRIPOS>ATOM
      1 PG          0.7491    4.1646   -4.4933 P.3       1 ACP        -1.2804
      2 O1G        -0.3773    5.0864   -4.0881 O.co2     1 ACP         0.3195
      3 O2G         1.9113    4.6380   -5.3357 O.co2     1 ACP         0.3195
      4 O3G         1.3176    3.3914   -3.1746 O.3       1 ACP         0.0326
      5 PB          0.9951    1.3104   -6.0322 P.3       1 ACP        -1.2804
      6 O1B         1.9390    1.8846   -7.0629 O.co2     1 ACP         0.3195
      7 O2B         0.0321    0.1920   -6.3581 O.co2     1 ACP         0.3195
      8 C3B         0.0001    2.7116   -5.3534 C.3       1 ACP         0.8942
      9 PA          3.0653   -0.0868   -4.4294 P.3       1 ACP        -1.1062
     10 O1A         4.2789    0.4515   -5.1554 O.co2     1 ACP         0.3195
     11 O2A         2.5799   -1.4982   -4.6803 O.co2     1 ACP         0.3195
     12 O3A         1.8195    0.9401   -4.6753 O.3       1 ACP         0.4672
     13 O5'         3.2883    0.1336   -2.8242 O.3       1 ACP         0.1618
     14 C5'         2.2816   -0.2918   -1.9206 C.3       1 ACP         0.1504
     15 C4'         2.7248    0.0226   -0.4980 C.3       1 ACP         0.1111
     16 O4'         2.4697    1.4219   -0.2462 O.3       1 ACP        -0.1436
     17 C3'         1.9404   -0.7419    0.5596 C.3       1 ACP         0.1111
     18 O3'         2.7418   -0.8086    1.7389 O.3       1 ACP        -0.2728
     19 C2'         0.7477    0.1630    0.7858 C.3       1 ACP         0.1111
     20 O2'         0.1373   -0.0577    2.0407 O.3       1 ACP        -0.2728
     21 C1'         1.3733    1.5427    0.6747 C.3       1 ACP         0.2693
     22 N9          0.4520    2.5240    0.1767 N.pl3     1 ACP        -0.3222
     23 C8         -0.7463    2.2774   -0.7501 C.ar      1 ACP         0.1640
     24 N7         -1.3714    3.4419   -0.9948 N.2       1 ACP        -0.1640
     25 C5         -0.6104    4.3223   -0.2723 C.ar      1 ACP         0.0820
     26 C6         -0.9062    5.7820   -0.2194 C.ar      1 ACP         0.1640
     27 N6         -1.9385    6.2713   -0.8881 N.pl3     1 ACP        -0.4916
     28 N1         -0.0613    6.4906    0.5336 N.pl3     1 ACP        -0.4390
     29 C2          1.0416    5.8662    1.2291 C.ar      1 ACP         0.5691
     30 N3          1.3146    4.5989    1.1954 N.ar      1 ACP        -0.4283
     31 C4          0.4541    3.8697    0.4273 C.ar      1 ACP         0.2226
     32 HOG3        1.6840    3.9278   -2.4396 H         1 ACP         0.2010
     33 H3B1       -0.5754    3.1191   -6.1920 H         1 ACP        -0.0393
     34 H3B2       -0.7141    2.2663   -4.6519 H         1 ACP        -0.0393
     35 H5'1        1.3500    0.2325   -2.1560 H         1 ACP        -0.0393
     36 H5'2        2.1267   -1.3683   -2.0444 H         1 ACP        -0.0393
     37 H4'         3.8046   -0.1390   -0.4011 H         1 ACP        -0.0393
     38 H3'         1.6787   -1.7627    0.2719 H         1 ACP        -0.0393
     39 HO3'        3.5553   -1.2733    1.4913 H         1 ACP         0.2010
     40 H2'         0.0002   -0.0084   -0.0014 H         1 ACP        -0.0393
     41 HO2'       -0.1554   -0.9852    2.0577 H         1 ACP         0.2010
     42 H1'         1.7718    1.9211    1.6015 H         1 ACP        -0.0393
     43 H8         -1.1244    1.3534   -1.1987 H         1 ACP         0.0000
     44 HN61       -2.5259    5.6573   -1.4336 H         1 ACP         0.2048
     45 HN62       -2.1416    7.2600   -0.8539 H         1 ACP         0.2048
     46 H2          1.6509    6.5764    1.8088 H         1 ACP        -0.1292
     47 H47        -0.2190    7.4917    0.6033 H         1 ACP         0.2048
@<TRIPOS>BOND
     1    1    2 2
     2    1    3 1
     3    1    4 1
     4    1    8 1
     5    4   32 1
     6    5    6 2
     7    5    7 1
     8    5    8 1
     9    5   12 1
    10    8   33 1
    11    8   34 1
    12    9   10 2
    13    9   11 1
    14    9   12 1
    15    9   13 1
    16   13   14 1
    17   14   15 1
    18   14   35 1
    19   14   36 1
    20   15   16 1
    21   15   17 1
    22   15   37 1
    23   16   21 1
    24   17   18 1
    25   17   19 1
    26   17   38 1
    27   18   39 1
    28   19   20 1
    29   19   21 1
    30   19   40 1
    31   20   41 1
    32   21   22 1
    33   21   42 1
    34   22   23 ar
    35   22   31 ar
    36   23   24 ar
    37   23   43 1
    38   24   25 ar
    39   25   26 ar
    40   25   31 ar
    41   26   27 1
    42   26   28 ar
    43   27   44 1
    44   27   45 1
    45   28   29 ar
    46   28   47 1
    47   29   30 ar
    48   29   46 1
    49   30   31 ar
@<TRIPOS>SUBSTRUCTURE
     1 ACP         1 GROUP 0 A     ****
@<TRIPOS>MOLECULE
[[5-(6-amino-1,8-dihydropurine-6,8-diylium-7-id-9-yl)-3,4-dihydroxy-tetrahydrofuran-2-yl]methoxy-oxido-phosphoryl]oxy-[[hydroxy(oxido)phosphoryl]methyl]phosphinate
   47    49     1     0     0
SMALL
USER_CHARGES

@<TRIPOS>ATOM
      1 PG         -1.6656   -0.7166   -4.9846 P.3       1 ACP        -1.2804
      2 O1G        -2.9828    0.0127   -5.1117 O.co2     1 ACP         0.3195
      3 O2G        -0.9411   -0.8425   -3.6642 O.co2     1 ACP         0.3195
      4 O3G        -1.7930   -2.1894   -5.6734 O.3       1 ACP         0.0326
      5 PB          1.2580   -0.5250   -6.3956 P.3       1 ACP        -1.2804
      6 O1B         1.8885    0.3351   -7.4658 O.co2     1 ACP         0.3195
      7 O2B         1.2331   -2.0334   -6.4871 O.co2     1 ACP         0.3195
      8 C3B        -0.4886    0.0416   -6.1897 C.3       1 ACP         0.8942
      9 PA          3.3324   -0.0529   -4.3266 P.3       1 ACP        -1.1062
     10 O1A         4.1264    0.9964   -5.0738 O.co2     1 ACP         0.3195
     11 O2A         3.8347   -1.4774   -4.2320 O.co2     1 ACP         0.3195
     12 O3A         1.8151   -0.0782   -4.9299 O.3       1 ACP         0.4672
     13 O5'         3.0198    0.5138   -2.8245 O.3       1 ACP         0.1618
     14 C5'         2.2816   -0.2918   -1.9206 C.3       1 ACP         0.1504
     15 C4'         2.7248    0.0226   -0.4980 C.3       1 ACP         0.1111
     16 O4'         2.4697    1.4219   -0.2462 O.3       1 ACP        -0.1436
     17 C3'         1.9404   -0.7419    0.5596 C.3       1 ACP         0.1111
     18 O3'         2.7418   -0.8086    1.7389 O.3       1 ACP        -0.2728
     19 C2'         0.7477    0.1630    0.7858 C.3       1 ACP         0.1111
     20 O2'         0.1373   -0.0577    2.0407 O.3       1 ACP        -0.2728
     21 C1'         1.3733    1.5427    0.6747 C.3       1 ACP         0.2693
     22 N9          0.4520    2.5240    0.1767 N.pl3     1 ACP        -0.3222
     23 C8          0.1798    2.8712   -1.2933 C.ar      1 ACP         0.1640
     24 N7         -0.7494    3.8400   -1.3610 N.2       1 ACP        -0.1640
     25 C5         -1.0173    4.0603   -0.0358 C.ar      1 ACP         0.0820
     26 C6         -2.0105    5.0717    0.4241 C.ar      1 ACP         0.1640
     27 N6         -2.6723    5.7982   -0.4628 N.pl3     1 ACP        -0.4916
     28 N1         -2.1445    5.1522    1.7502 N.pl3     1 ACP        -0.4390
     29 C2         -1.3755    4.3143    2.6426 C.ar      1 ACP         0.5691
     30 N3         -0.5075    3.4292    2.2616 N.ar      1 ACP        -0.4283
     31 C4         -0.3667    3.3425    0.9070 C.ar      1 ACP         0.2226
     32 HOG3       -2.4614   -2.8146   -5.3204 H         1 ACP         0.2010
     33 H3B1       -0.4423    1.1071   -5.9389 H         1 ACP        -0.0393
     34 H3B2       -0.9547   -0.0423   -7.1777 H         1 ACP        -0.0393
     35 H5'1        1.2153   -0.0781   -2.0454 H         1 ACP        -0.0393
     36 H5'2        2.4645   -1.3454   -2.1547 H         1 ACP        -0.0393
     37 H4'         3.8046   -0.1390   -0.4011 H         1 ACP        -0.0393
     38 H3'         1.6787   -1.7627    0.2719 H         1 ACP        -0.0393
     39 HO3'        2.2231   -1.2979    2.3952 H         1 ACP         0.2010
     40 H2'         0.0002   -0.0084   -0.0014 H         1 ACP        -0.0393
     41 HO2'       -0.6132    0.5577    2.1063 H         1 ACP         0.2010
     42 H1'         1.7718    1.9211    1.6015 H         1 ACP        -0.0393
     43 H8          0.6089    2.4651   -2.2147 H         1 ACP         0.0000
     44 HN61       -2.5055    5.6680   -1.4503 H         1 ACP         0.2048
     45 HN62       -3.3462    6.4841   -0.1542 H         1 ACP         0.2048
     46 H2         -1.5932    4.4937    3.7066 H         1 ACP        -0.1292
     47 H47        -2.8098    5.8270    2.1160 H         1 ACP         0.2048
@<TRIPOS>BOND
     1    1    2 2
     2    1    3 1
     3    1    4 1
     4    1    8 1
     5    4   32 1
     6    5    6 2
     7    5    7 1
     8    5    8 1
     9    5   12 1
    10    8   33 1
    11    8   34 1
    12    9   10 2
    13    9   11 1
    14    9   12 1
    15    9   13 1
    16   13   14 1
    17   14   15 1
    18   14   35 1
    19   14   36 1
    20   15   16 1
    21   15   17 1
    22   15   37 1
    23   16   21 1
    24   17   18 1
    25   17   19 1
    26   17   38 1
    27   18   39 1
    28   19   20 1
    29   19   21 1
    30   19   40 1
    31   20   41 1
    32   21   22 1
    33   21   42 1
    34   22   23 ar
    35   22   31 ar
    36   23   24 ar
    37   23   43 1
    38   24   25 ar
    39   25   26 ar
    40   25   31 ar
    41   26   27 1
    42   26   28 ar
    43   27   44 1
    44   27   45 1
    45   28   29 ar
    46   28   47 1
    47   29   30 ar
    48   29   46 1
    49   30   31 ar
@<TRIPOS>SUBSTRUCTURE
     1 ACP         1 GROUP 0 A     ****
@<TRIPOS>MOLECULE
[[5-(6-amino-1,8-dihydropurine-6,8-diylium-7-id-9-yl)-3,4-dihydroxy-tetrahydrofuran-2-yl]methoxy-oxido-phosphoryl]oxy-[[hydroxy(oxido)phosphoryl]methyl]phosphinate
   47    49     1     0     0
SMALL
USER_CHARGES

@<TRIPOS>ATOM
      1 PG          6.5119   -0.8606   -5.1777 P.3       1 ACP        -1.2804
      2 O1G         7.5555    0.1902   -5.4770 O.co2     1 ACP         0.3195
      3 O2G         6.7970   -2.3384   -5.3156 O.co2     1 ACP         0.3195
      4 O3G         5.8564   -0.5715   -3.7126 O.3       1 ACP         0.0326
      5 PB          3.4884   -1.5062   -6.1864 P.3       1 ACP        -1.2804
      6 O1B         3.8678   -2.9076   -6.6045 O.co2     1 ACP         0.3195
      7 O2B         2.4145   -0.7171   -6.8993 O.co2     1 ACP         0.3195
      8 C3B         5.0287   -0.4859   -6.2132 C.3       1 ACP         0.8942
      9 PA          2.1362   -2.2698   -3.6575 P.3       1 ACP        -1.1062
     10 O1A         2.4953   -3.7397   -3.6734 O.co2     1 ACP         0.3195
     11 O2A         0.7453   -1.8118   -4.0395 O.co2     1 ACP         0.3195
     12 O3A         3.2175   -1.4646   -4.5792 O.3       1 ACP         0.4672
     13 O5'         2.5237   -1.6631   -2.1889 O.3       1 ACP         0.1618
     14 C5'         2.2816   -0.2918   -1.9206 C.3       1 ACP         0.1504
     15 C4'         2.7248    0.0226   -0.4980 C.3       1 ACP         0.1111
     16 O4'         2.4697    1.4219   -0.2462 O.3       1 ACP        -0.1436
     17 C3'         1.9404   -0.7419    0.5596 C.3       1 ACP         0.1111
     18 O3'         2.7418   -0.8086    1.7389 O.3       1 ACP        -0.2728
     19 C2'         0.7477    0.1630    0.7858 C.3       1 ACP         0.1111
     20 O2'         0.1373   -0.0577    2.0407 O.3       1 ACP        -0.2728
     21 C1'         1.3733    1.5427    0.6747 C.3       1 ACP         0.2693
     22 N9          0.4520    2.5240    0.1767 N.pl3     1 ACP        -0.3222
     23 C8          0.1798    2.8712   -1.2933 C.ar      1 ACP         0.1640
     24 N7         -0.7494    3.8400   -1.3610 N.2       1 ACP        -0.1640
     25 C5         -1.0173    4.0603   -0.0358 C.ar      1 ACP         0.0820
     26 C6         -2.0105    5.0717    0.4241 C.ar      1 ACP         0.1640
     27 N6         -2.6723    5.7982   -0.4628 N.pl3     1 ACP        -0.4916
     28 N1         -2.1445    5.1522    1.7502 N.pl3     1 ACP        -0.4390
     29 C2         -1.3755    4.3143    2.6426 C.ar      1 ACP         0.5691
     30 N3         -0.5075    3.4292    2.2616 N.ar      1 ACP        -0.4283
     31 C4         -0.3667    3.3425    0.9070 C.ar      1 ACP         0.2226
     32 HOG3        6.4455   -0.5720   -2.9283 H         1 ACP         0.2010
     33 H3B1        5.3781   -0.4776   -7.2516 H         1 ACP        -0.0393
     34 H3B2        4.7219    0.5356   -5.9627 H         1 ACP        -0.0393
     35 H5'1        2.8429    0.3140   -2.6391 H         1 ACP        -0.0393
     36 H5'2        1.2125   -0.0906   -2.0420 H         1 ACP        -0.0393
     37 H4'         3.8046   -0.1390   -0.4011 H         1 ACP        -0.0393
     38 H3'         1.6787   -1.7627    0.2719 H         1 ACP        -0.0393
     39 HO3'        2.2231   -1.2979    2.3952 H         1 ACP         0.2010
     40 H2'         0.0002   -0.0084   -0.0014 H         1 ACP        -0.0393
     41 HO2'       -0.6132    0.5577    2.1063 H         1 ACP         0.2010
     42 H1'         1.7718    1.9211    1.6015 H         1 ACP        -0.0393
     43 H8          0.6089    2.4651   -2.2147 H         1 ACP         0.0000
     44 HN61       -2.5055    5.6680   -1.4503 H         1 ACP         0.2048
     45 HN62       -3.3462    6.4841   -0.1542 H         1 ACP         0.2048
     46 H2         -1.5932    4.4937    3.7066 H         1 ACP        -0.1292
     47 H47        -2.8098    5.8270    2.1160 H         1 ACP         0.2048
@<TRIPOS>BOND
     1    1    2 2
     2    1    3 1
     3    1    4 1
     4    1    8 1
     5    4   32 1
     6    5    6 2
     7    5    7 1
     8    5    8 1
     9    5   12 1
    10    8   33 1
    11    8   34 1
    12    9   10 2
    13    9   11 1
    14    9   12 1
    15    9   13 1
    16   13   14 1
    17   14   15 1
    18   14   35 1
    19   14   36 1
    20   15   16 1
    21   15   17 1
    22   15   37 1
    23   16   21 1
    24   17   18 1
    25   17   19 1
    26   17   38 1
    27   18   39 1
    28   19   20 1
    29   19   21 1
    30   19   40 1
    31   20   41 1
    32   21   22 1
    33   21   42 1
    34   22   23 ar
    35   22   31 ar
    36   23   24 ar
    37   23   43 1
    38   24   25 ar
    39   25   26 ar
    40   25   31 ar
    41   26   27 1
    42   26   28 ar
    43   27   44 1
    44   27   45 1
    45   28   29 ar
    46   28   47 1
    47   29   30 ar
    48   29   46 1
    49   30   31 ar
@<TRIPOS>SUBSTRUCTURE
     1 ACP         1 GROUP 0 A     ****
@<TRIPOS>MOLECULE
[[5-(6-amino-1,8-dihydropurine-6,8-diylium-7-id-9-yl)-3,4-dihydroxy-tetrahydrofuran-2-yl]methoxy-oxido-phosphoryl]oxy-[[hydroxy(oxido)phosphoryl]methyl]phosphinate
   47    49     1     0     0
SMALL
USER_CHARGES

@<TRIPOS>ATOM
      1 PG          0.1935   -3.1005   -4.9249 P.3       1 ACP        -1.2804
      2 O1G         1.4501   -3.5791   -4.2359 O.co2     1 ACP         0.3195
      3 O2G        -0.7528   -4.0511   -5.6214 O.co2     1 ACP         0.3195
      4 O3G        -0.6516   -2.1455   -3.9084 O.3       1 ACP         0.0326
      5 PB          1.5457   -0.2441   -5.6916 P.3       1 ACP        -1.2804
      6 O1B         0.6408    0.5026   -4.7396 O.co2     1 ACP         0.3195
      7 O2B         2.0601    0.3798   -6.9686 O.co2     1 ACP         0.3195
      8 C3B         0.6862   -1.8129   -6.1544 C.3       1 ACP         0.8942
      9 PA          3.9534   -0.2075   -3.9573 P.3       1 ACP        -1.1062
     10 O1A         4.6225    0.8729   -4.7788 O.co2     1 ACP         0.3195
     11 O2A         4.7732   -1.3027   -3.3100 O.co2     1 ACP         0.3195
     12 O3A         2.7896   -0.9020   -4.8683 O.3       1 ACP         0.4672
     13 O5'         3.0198    0.5138   -2.8245 O.3       1 ACP         0.1618
     14 C5'         2.2816   -0.2918   -1.9206 C.3       1 ACP         0.1504
     15 C4'         2.7248    0.0226   -0.4980 C.3       1 ACP         0.1111
     16 O4'         2.4697    1.4219   -0.2462 O.3       1 ACP        -0.1436
     17 C3'         1.9404   -0.7419    0.5596 C.3       1 ACP         0.1111
     18 O3'         2.7418   -0.8086    1.7389 O.3       1 ACP        -0.2728
     19 C2'         0.7477    0.1630    0.7858 C.3       1 ACP         0.1111
     20 O2'         0.1373   -0.0577    2.0407 O.3       1 ACP        -0.2728
     21 C1'         1.3733    1.5427    0.6747 C.3       1 ACP         0.2693
     22 N9          0.4520    2.5240    0.1767 N.pl3     1 ACP        -0.3222
     23 C8          0.1798    2.8712   -1.2933 C.ar      1 ACP         0.1640
     24 N7         -0.7494    3.8400   -1.3610 N.2       1 ACP        -0.1640
     25 C5         -1.0173    4.0603   -0.0358 C.ar      1 ACP         0.0820
     26 C6         -2.0105    5.0717    0.4241 C.ar      1 ACP         0.1640
     27 N6         -2.6723    5.7982   -0.4628 N.pl3     1 ACP        -0.4916
     28 N1         -2.1445    5.1522    1.7502 N.pl3     1 ACP        -0.4390
     29 C2         -1.3755    4.3143    2.6426 C.ar      1 ACP         0.5691
     30 N3         -0.5075    3.4292    2.2616 N.ar      1 ACP        -0.4283
     31 C4         -0.3667    3.3425    0.9070 C.ar      1 ACP         0.2226
     32 HOG3       -0.9603   -2.5249   -3.0581 H         1 ACP         0.2010
     33 H3B1       -0.2336   -1.5220   -6.6739 H         1 ACP        -0.0393
     34 H3B2        1.3324   -2.3099   -6.8864 H         1 ACP        -0.0393
     35 H5'1        1.2153   -0.0781   -2.0454 H         1 ACP        -0.0393
     36 H5'2        2.4645   -1.3454   -2.1547 H         1 ACP        -0.0393
     37 H4'         3.8046   -0.1390   -0.4011 H         1 ACP        -0.0393
     38 H3'         1.6787   -1.7627    0.2719 H         1 ACP        -0.0393
     39 HO3'        2.2231   -1.2979    2.3952 H         1 ACP         0.2010
     40 H2'         0.0002   -0.0084   -0.0014 H         1 ACP        -0.0393
     41 HO2'       -0.6132    0.5577    2.1063 H         1 ACP         0.2010
     42 H1'         1.7718    1.9211    1.6015 H         1 ACP        -0.0393
     43 H8          0.6089    2.4651   -2.2147 H         1 ACP         0.0000
     44 HN61       -2.5055    5.6680   -1.4503 H         1 ACP         0.2048
     45 HN62       -3.3462    6.4841   -0.1542 H         1 ACP         0.2048
     46 H2         -1.5932    4.4937    3.7066 H         1 ACP        -0.1292
     47 H47        -2.8098    5.8270    2.1160 H         1 ACP         0.2048
@<TRIPOS>BOND
     1    1    2 2
     2    1    3 1
     3    1    4 1
     4    1    8 1
     5    4   32 1
     6    5    6 2
     7    5    7 1
     8    5    8 1
     9    5   12 1
    10    8   33 1
    11    8   34 1
    12    9   10 2
    13    9   11 1
    14    9   12 1
    15    9   13 1
    16   13   14 1
    17   14   15 1
    18   14   35 1
    19   14   36 1
    20   15   16 1
    21   15   17 1
    22   15   37 1
    23   16   21 1
    24   17   18 1
    25   17   19 1
    26   17   38 1
    27   18   39 1
    28   19   20 1
    29   19   21 1
    30   19   40 1
    31   20   41 1
    32   21   22 1
    33   21   42 1
    34   22   23 ar
    35   22   31 ar
    36   23   24 ar
    37   23   43 1
    38   24   25 ar
    39   25   26 ar
    40   25   31 ar
    41   26   27 1
    42   26   28 ar
    43   27   44 1
    44   27   45 1
    45   28   29 ar
    46   28   47 1
    47   29   30 ar
    48   29   46 1
    49   30   31 ar
@<TRIPOS>SUBSTRUCTURE
     1 ACP         1 GROUP 0 A     ****
@<TRIPOS>MOLECULE
[[5-(6-amino-1,8-dihydropurine-6,8-diylium-7-id-9-yl)-3,4-dihydroxy-tetrahydrofuran-2-yl]methoxy-oxido-phosphoryl]oxy-[[hydroxy(oxido)phosphoryl]methyl]phosphinate
   47    49     1     0     0
SMALL
USER_CHARGES

@<TRIPOS>ATOM
      1 PG          3.3020    2.4604   -5.4785 P.3       1 ACP        -1.2804
      2 O1G         3.3723    3.4966   -6.5759 O.co2     1 ACP         0.3195
      3 O2G         3.4517    2.8240   -4.0192 O.co2     1 ACP         0.3195
      4 O3G         1.9603    1.5541   -5.6744 O.3       1 ACP         0.0326
      5 PB          4.8419   -0.3188   -4.7857 P.3       1 ACP        -1.2804
      6 O1B         5.2480    0.1822   -3.4194 O.co2     1 ACP         0.3195
      7 O2B         5.6944   -1.2866   -5.5737 O.co2     1 ACP         0.3195
      8 C3B         4.5600    1.1613   -5.8553 C.3       1 ACP         0.8942
      9 PA          2.6179   -2.0499   -3.8561 P.3       1 ACP        -1.1062
     10 O1A         3.4201   -3.3175   -4.0548 O.co2     1 ACP         0.3195
     11 O2A         1.1258   -2.0342   -4.1089 O.co2     1 ACP         0.3195
     12 O3A         3.3049   -0.8608   -4.7399 O.3       1 ACP         0.4672
     13 O5'         2.9202   -1.4821   -2.3524 O.3       1 ACP         0.1618
     14 C5'         2.2816   -0.2918   -1.9206 C.3       1 ACP         0.1504
     15 C4'         2.7248    0.0226   -0.4980 C.3       1 ACP         0.1111
     16 O4'         2.4697    1.4219   -0.2462 O.3       1 ACP        -0.1436
     17 C3'         1.9404   -0.7419    0.5596 C.3       1 ACP         0.1111
     18 O3'         2.7418   -0.8086    1.7389 O.3       1 ACP        -0.2728
     19 C2'         0.7477    0.1630    0.7858 C.3       1 ACP         0.1111
     20 O2'         0.1373   -0.0577    2.0407 O.3       1 ACP        -0.2728
     21 C1'         1.3733    1.5427    0.6747 C.3       1 ACP         0.2693
     22 N9          0.4520    2.5240    0.1767 N.pl3     1 ACP        -0.3222
     23 C8          0.1798    2.8712   -1.2933 C.ar      1 ACP         0.1640
     24 N7         -0.7494    3.8400   -1.3610 N.2       1 ACP        -0.1640
     25 C5         -1.0173    4.0603   -0.0358 C.ar      1 ACP         0.0820
     26 C6         -2.0105    5.0717    0.4241 C.ar      1 ACP         0.1640
     27 N6         -2.6723    5.7982   -0.4628 N.pl3     1 ACP        -0.4916
     28 N1         -2.1445    5.1522    1.7502 N.pl3     1 ACP        -0.4390
     29 C2         -1.3755    4.3143    2.6426 C.ar      1 ACP         0.5691
     30 N3         -0.5075    3.4292    2.2616 N.ar      1 ACP        -0.4283
     31 C4         -0.3667    3.3425    0.9070 C.ar      1 ACP         0.2226
     32 HOG3        1.0872    2.0006   -5.6545 H         1 ACP         0.2010
     33 H3B1        5.5216    1.6817   -5.9257 H         1 ACP        -0.0393
     34 H3B2        4.3227    0.7755   -6.8530 H         1 ACP        -0.0393
     35 H5'1        2.5581    0.5235   -2.5966 H         1 ACP        -0.0393
     36 H5'2        1.1974   -0.4370   -1.9607 H         1 ACP        -0.0393
     37 H4'         3.8046   -0.1390   -0.4011 H         1 ACP        -0.0393
     38 H3'         1.6787   -1.7627    0.2719 H         1 ACP        -0.0393
     39 HO3'        2.2231   -1.2979    2.3952 H         1 ACP         0.2010
     40 H2'         0.0002   -0.0084   -0.0014 H         1 ACP        -0.0393
     41 HO2'       -0.1554   -0.9852    2.0577 H         1 ACP         0.2010
     42 H1'         1.7718    1.9211    1.6015 H         1 ACP        -0.0393
     43 H8          0.6089    2.4651   -2.2147 H         1 ACP         0.0000
     44 HN61       -2.5055    5.6680   -1.4503 H         1 ACP         0.2048
     45 HN62       -3.3462    6.4841   -0.1542 H         1 ACP         0.2048
     46 H2         -1.5932    4.4937    3.7066 H         1 ACP        -0.1292
     47 H47        -2.8098    5.8270    2.1160 H         1 ACP         0.2048
@<TRIPOS>BOND
     1    1    2 2
     2    1    3 1
     3    1    4 1
     4    1    8 1
     5    4   32 1
     6    5    6 2
     7    5    7 1
     8    5    8 1
     9    5   12 1
    10    8   33 1
    11    8   34 1
    12    9   10 2
    13    9   11 1
    14    9   12 1
    15    9   13 1
    16   13   14 1
    17   14   15 1
    18   14   35 1
    19   14   36 1
    20   15   16 1
    21   15   17 1
    22   15   37 1
    23   16   21 1
    24   17   18 1
    25   17   19 1
    26   17   38 1
    27   18   39 1
    28   19   20 1
    29   19   21 1
    30   19   40 1
    31   20   41 1
    32   21   22 1
    33   21   42 1
    34   22   23 ar
    35   22   31 ar
    36   23   24 ar
    37   23   43 1
    38   24   25 ar
    39   25   26 ar
    40   25   31 ar
    41   26   27 1
    42   26   28 ar
    43   27   44 1
    44   27   45 1
    45   28   29 ar
    46   28   47 1
    47   29   30 ar
    48   29   46 1
    49   30   31 ar
@<TRIPOS>SUBSTRUCTURE
     1 ACP         1 GROUP 0 A     ****
@<TRIPOS>MOLECULE
[[5-(6-amino-1,8-dihydropurine-6,8-diylium-7-id-9-yl)-3,4-dihydroxy-tetrahydrofuran-2-yl]methoxy-oxido-phosphoryl]oxy-[[hydroxy(oxido)phosphoryl]methyl]phosphinate
   47    49     1     0     0
SMALL
USER_CHARGES

@<TRIPOS>ATOM
      1 PG          1.6296    1.3587   -6.4075 P.3       1 ACP        -1.2804
      2 O1G         2.4580    2.3352   -7.2094 O.co2     1 ACP         0.3195
      3 O2G         1.5628    1.4114   -4.8985 O.co2     1 ACP         0.3195
      4 O3G         0.1164    1.3062   -7.0135 O.3       1 ACP         0.0326
      5 PB          1.4292   -1.8769   -6.1501 P.3       1 ACP        -1.2804
      6 O1B         2.1270   -3.0578   -6.7835 O.co2     1 ACP         0.3195
      7 O2B        -0.0730   -1.7149   -6.1884 O.co2     1 ACP         0.3195
      8 C3B         2.1652   -0.3457   -6.8768 C.3       1 ACP         0.8942
      9 PA          1.5537   -2.4539   -3.2418 P.3       1 ACP        -1.1062
     10 O1A         2.0300   -3.8868   -3.3414 O.co2     1 ACP         0.3195
     11 O2A         0.1072   -2.1427   -2.9238 O.co2     1 ACP         0.3195
     12 O3A         1.9587   -1.6787   -4.6209 O.3       1 ACP         0.4672
     13 O5'         2.5237   -1.6631   -2.1889 O.3       1 ACP         0.1618
     14 C5'         2.2816   -0.2918   -1.9206 C.3       1 ACP         0.1504
     15 C4'         2.7248    0.0226   -0.4980 C.3       1 ACP         0.1111
     16 O4'         2.4697    1.4219   -0.2462 O.3       1 ACP        -0.1436
     17 C3'         1.9404   -0.7419    0.5596 C.3       1 ACP         0.1111
     18 O3'         2.7418   -0.8086    1.7389 O.3       1 ACP        -0.2728
     19 C2'         0.7477    0.1630    0.7858 C.3       1 ACP         0.1111
     20 O2'         0.1373   -0.0577    2.0407 O.3       1 ACP        -0.2728
     21 C1'         1.3733    1.5427    0.6747 C.3       1 ACP         0.2693
     22 N9          0.4520    2.5240    0.1767 N.pl3     1 ACP        -0.3222
     23 C8          0.1798    2.8712   -1.2933 C.ar      1 ACP         0.1640
     24 N7         -0.7494    3.8400   -1.3610 N.2       1 ACP        -0.1640
     25 C5         -1.0173    4.0603   -0.0358 C.ar      1 ACP         0.0820
     26 C6         -2.0105    5.0717    0.4241 C.ar      1 ACP         0.1640
     27 N6         -2.6723    5.7982   -0.4628 N.pl3     1 ACP        -0.4916
     28 N1         -2.1445    5.1522    1.7502 N.pl3     1 ACP        -0.4390
     29 C2         -1.3755    4.3143    2.6426 C.ar      1 ACP         0.5691
     30 N3         -0.5075    3.4292    2.2616 N.ar      1 ACP        -0.4283
     31 C4         -0.3667    3.3425    0.9070 C.ar      1 ACP         0.2226
     32 HOG3       -0.4115    2.1328   -7.0257 H         1 ACP         0.2010
     33 H3B1        3.2411   -0.3919   -6.6748 H         1 ACP        -0.0393
     34 H3B2        2.0318   -0.4285   -7.9611 H         1 ACP        -0.0393
     35 H5'1        2.8429    0.3140   -2.6391 H         1 ACP        -0.0393
     36 H5'2        1.2125   -0.0906   -2.0420 H         1 ACP        -0.0393
     37 H4'         3.8046   -0.1390   -0.4011 H         1 ACP        -0.0393
     38 H3'         1.6787   -1.7627    0.2719 H         1 ACP        -0.0393
     39 HO3'        2.2231   -1.2979    2.3952 H         1 ACP         0.2010
     40 H2'         0.0002   -0.0084   -0.0014 H         1 ACP        -0.0393
     41 HO2'       -0.6132    0.5577    2.1063 H         1 ACP         0.2010
     42 H1'         1.7718    1.9211    1.6015 H         1 ACP        -0.0393
     43 H8          0.6089    2.4651   -2.2147 H         1 ACP         0.0000
     44 HN61       -2.5055    5.6680   -1.4503 H         1 ACP         0.2048
     45 HN62       -3.3462    6.4841   -0.1542 H         1 ACP         0.2048
     46 H2         -1.5932    4.4937    3.7066 H         1 ACP        -0.1292
     47 H47        -2.8098    5.8270    2.1160 H         1 ACP         0.2048
@<TRIPOS>BOND
     1    1    2 2
     2    1    3 1
     3    1    4 1
     4    1    8 1
     5    4   32 1
     6    5    6 2
     7    5    7 1
     8    5    8 1
     9    5   12 1
    10    8   33 1
    11    8   34 1
    12    9   10 2
    13    9   11 1
    14    9   12 1
    15    9   13 1
    16   13   14 1
    17   14   15 1
    18   14   35 1
    19   14   36 1
    20   15   16 1
    21   15   17 1
    22   15   37 1
    23   16   21 1
    24   17   18 1
    25   17   19 1
    26   17   38 1
    27   18   39 1
    28   19   20 1
    29   19   21 1
    30   19   40 1
    31   20   41 1
    32   21   22 1
    33   21   42 1
    34   22   23 ar
    35   22   31 ar
    36   23   24 ar
    37   23   43 1
    38   24   25 ar
    39   25   26 ar
    40   25   31 ar
    41   26   27 1
    42   26   28 ar
    43   27   44 1
    44   27   45 1
    45   28   29 ar
    46   28   47 1
    47   29   30 ar
    48   29   46 1
    49   30   31 ar
@<TRIPOS>SUBSTRUCTURE
     1 ACP         1 GROUP 0 A     ****
@<TRIPOS>MOLECULE
[[5-(6-amino-1,8-dihydropurine-6,8-diylium-7-id-9-yl)-3,4-dihydroxy-tetrahydrofuran-2-yl]methoxy-oxido-phosphoryl]oxy-[[hydroxy(oxido)phosphoryl]methyl]phosphinate
   47    49     1     0     0
SMALL
USER_CHARGES

@<TRIPOS>ATOM
      1 PG          4.6899   -0.2182   -7.5464 P.3       1 ACP        -1.2804
      2 O1G         5.0548    1.0913   -8.2058 O.co2     1 ACP         0.3195
      3 O2G         3.2988   -0.8022   -7.6349 O.co2     1 ACP         0.3195
      4 O3G         5.7811   -1.3568   -7.9621 O.3       1 ACP         0.0326
      5 PB          4.8472   -1.4445   -4.5386 P.3       1 ACP        -1.2804
      6 O1B         5.3187   -0.9488   -3.1915 O.co2     1 ACP         0.3195
      7 O2B         5.3827   -2.7133   -5.1613 O.co2     1 ACP         0.3195
      8 C3B         5.1171   -0.0797   -5.7546 C.3       1 ACP         0.8942
      9 PA          2.1362   -2.2698   -3.6575 P.3       1 ACP        -1.1062
     10 O1A         2.4953   -3.7397   -3.6734 O.co2     1 ACP         0.3195
     11 O2A         0.7453   -1.8118   -4.0395 O.co2     1 ACP         0.3195
     12 O3A         3.2175   -1.4646   -4.5792 O.3       1 ACP         0.4672
     13 O5'         2.5237   -1.6631   -2.1889 O.3       1 ACP         0.1618
     14 C5'         2.2816   -0.2918   -1.9206 C.3       1 ACP         0.1504
     15 C4'         2.7248    0.0226   -0.4980 C.3       1 ACP         0.1111
     16 O4'         2.4697    1.4219   -0.2462 O.3       1 ACP        -0.1436
     17 C3'         1.9404   -0.7419    0.5596 C.3       1 ACP         0.1111
     18 O3'         2.7418   -0.8086    1.7389 O.3       1 ACP        -0.2728
     19 C2'         0.7477    0.1630    0.7858 C.3       1 ACP         0.1111
     20 O2'         0.1373   -0.0577    2.0407 O.3       1 ACP        -0.2728
     21 C1'         1.3733    1.5427    0.6747 C.3       1 ACP         0.2693
     22 N9          0.4520    2.5240    0.1767 N.pl3     1 ACP        -0.3222
     23 C8          0.1798    2.8712   -1.2933 C.ar      1 ACP         0.1640
     24 N7         -0.7494    3.8400   -1.3610 N.2       1 ACP        -0.1640
     25 C5         -1.0173    4.0603   -0.0358 C.ar      1 ACP         0.0820
     26 C6         -2.0105    5.0717    0.4241 C.ar      1 ACP         0.1640
     27 N6         -2.6723    5.7982   -0.4628 N.pl3     1 ACP        -0.4916
     28 N1         -2.1445    5.1522    1.7502 N.pl3     1 ACP        -0.4390
     29 C2         -1.3755    4.3143    2.6426 C.ar      1 ACP         0.5691
     30 N3         -0.5075    3.4292    2.2616 N.ar      1 ACP        -0.4283
     31 C4         -0.3667    3.3425    0.9070 C.ar      1 ACP         0.2226
     32 HOG3        5.8899   -1.5756   -8.9121 H         1 ACP         0.2010
     33 H3B1        4.5635    0.7872   -5.3770 H         1 ACP        -0.0393
     34 H3B2        6.1837    0.1660   -5.7050 H         1 ACP        -0.0393
     35 H5'1        2.8429    0.3140   -2.6391 H         1 ACP        -0.0393
     36 H5'2        1.2125   -0.0906   -2.0420 H         1 ACP        -0.0393
     37 H4'         3.8046   -0.1390   -0.4011 H         1 ACP        -0.0393
     38 H3'         1.6787   -1.7627    0.2719 H         1 ACP        -0.0393
     39 HO3'        2.2231   -1.2979    2.3952 H         1 ACP         0.2010
     40 H2'         0.0002   -0.0084   -0.0014 H         1 ACP        -0.0393
     41 HO2'       -0.6132    0.5577    2.1063 H         1 ACP         0.2010
     42 H1'         1.7718    1.9211    1.6015 H         1 ACP        -0.0393
     43 H8          0.6089    2.4651   -2.2147 H         1 ACP         0.0000
     44 HN61       -2.5055    5.6680   -1.4503 H         1 ACP         0.2048
     45 HN62       -3.3462    6.4841   -0.1542 H         1 ACP         0.2048
     46 H2         -1.5932    4.4937    3.7066 H         1 ACP        -0.1292
     47 H47        -2.8098    5.8270    2.1160 H         1 ACP         0.2048
@<TRIPOS>BOND
     1    1    2 2
     2    1    3 1
     3    1    4 1
     4    1    8 1
     5    4   32 1
     6    5    6 2
     7    5    7 1
     8    5    8 1
     9    5   12 1
    10    8   33 1
    11    8   34 1
    12    9   10 2
    13    9   11 1
    14    9   12 1
    15    9   13 1
    16   13   14 1
    17   14   15 1
    18   14   35 1
    19   14   36 1
    20   15   16 1
    21   15   17 1
    22   15   37 1
    23   16   21 1
    24   17   18 1
    25   17   19 1
    26   17   38 1
    27   18   39 1
    28   19   20 1
    29   19   21 1
    30   19   40 1
    31   20   41 1
    32   21   22 1
    33   21   42 1
    34   22   23 ar
    35   22   31 ar
    36   23   24 ar
    37   23   43 1
    38   24   25 ar
    39   25   26 ar
    40   25   31 ar
    41   26   27 1
    42   26   28 ar
    43   27   44 1
    44   27   45 1
    45   28   29 ar
    46   28   47 1
    47   29   30 ar
    48   29   46 1
    49   30   31 ar
@<TRIPOS>SUBSTRUCTURE
     1 ACP         1 GROUP 0 A     ****
@<TRIPOS>MOLECULE
[[5-(6-amino-1,8-dihydropurine-6,8-diylium-7-id-9-yl)-3,4-dihydroxy-tetrahydrofuran-2-yl]methoxy-oxido-phosphoryl]oxy-[[hydroxy(oxido)phosphoryl]methyl]phosphinate
   47    49     1     0     0
SMALL
USER_CHARGES

@<TRIPOS>ATOM
      1 PG          6.6984    1.2034   -3.7660 P.3       1 ACP        -1.2804
      2 O1G         8.0432    1.5178   -3.1532 O.co2     1 ACP         0.3195
      3 O2G         5.4063    1.3803   -3.0022 O.co2     1 ACP         0.3195
      4 O3G         6.5759    1.9448   -5.2135 O.3       1 ACP         0.0326
      5 PB          5.3244   -1.3769   -5.1905 P.3       1 ACP        -1.2804
      6 O1B         5.7568   -2.7849   -5.5268 O.co2     1 ACP         0.3195
      7 O2B         4.7951   -0.4259   -6.2392 O.co2     1 ACP         0.3195
      8 C3B         6.7513   -0.5436   -4.3636 C.3       1 ACP         0.8942
      9 PA          2.8591   -2.1299   -3.7201 P.3       1 ACP        -1.1062
     10 O1A         3.0727   -3.6280   -3.7234 O.co2     1 ACP         0.3195
     11 O2A         1.8686   -1.4903   -4.6689 O.co2     1 ACP         0.3195
     12 O3A         4.3077   -1.4018   -3.9162 O.3       1 ACP         0.4672
     13 O5'         2.5237   -1.6631   -2.1889 O.3       1 ACP         0.1618
     14 C5'         2.2816   -0.2918   -1.9206 C.3       1 ACP         0.1504
     15 C4'         2.7248    0.0226   -0.4980 C.3       1 ACP         0.1111
     16 O4'         2.4697    1.4219   -0.2462 O.3       1 ACP        -0.1436
     17 C3'         1.9404   -0.7419    0.5596 C.3       1 ACP         0.1111
     18 O3'         2.7418   -0.8086    1.7389 O.3       1 ACP        -0.2728
     19 C2'         0.7477    0.1630    0.7858 C.3       1 ACP         0.1111
     20 O2'         0.1373   -0.0577    2.0407 O.3       1 ACP        -0.2728
     21 C1'         1.3733    1.5427    0.6747 C.3       1 ACP         0.2693
     22 N9          0.4520    2.5240    0.1767 N.pl3     1 ACP        -0.3222
     23 C8          0.1798    2.8712   -1.2933 C.ar      1 ACP         0.1640
     24 N7         -0.7494    3.8400   -1.3610 N.2       1 ACP        -0.1640
     25 C5         -1.0173    4.0603   -0.0358 C.ar      1 ACP         0.0820
     26 C6         -2.0105    5.0717    0.4241 C.ar      1 ACP         0.1640
     27 N6         -2.6723    5.7982   -0.4628 N.pl3     1 ACP        -0.4916
     28 N1         -2.1445    5.1522    1.7502 N.pl3     1 ACP        -0.4390
     29 C2         -1.3755    4.3143    2.6426 C.ar      1 ACP         0.5691
     30 N3         -0.5075    3.4292    2.2616 N.ar      1 ACP        -0.4283
     31 C4         -0.3667    3.3425    0.9070 C.ar      1 ACP         0.2226
     32 HOG3        6.6441    2.9228   -5.2453 H         1 ACP         0.2010
     33 H3B1        7.0053   -1.1551   -3.4907 H         1 ACP        -0.0393
     34 H3B2        7.5906   -0.6094   -5.0649 H         1 ACP        -0.0393
     35 H5'1        2.8429    0.3140   -2.6391 H         1 ACP        -0.0393
     36 H5'2        1.2125   -0.0906   -2.0420 H         1 ACP        -0.0393
     37 H4'         3.8046   -0.1390   -0.4011 H         1 ACP        -0.0393
     38 H3'         1.6787   -1.7627    0.2719 H         1 ACP        -0.0393
     39 HO3'        2.2231   -1.2979    2.3952 H         1 ACP         0.2010
     40 H2'         0.0002   -0.0084   -0.0014 H         1 ACP        -0.0393
     41 HO2'       -0.6132    0.5577    2.1063 H         1 ACP         0.2010
     42 H1'         1.7718    1.9211    1.6015 H         1 ACP        -0.0393
     43 H8          0.6089    2.4651   -2.2147 H         1 ACP         0.0000
     44 HN61       -2.5055    5.6680   -1.4503 H         1 ACP         0.2048
     45 HN62       -3.3462    6.4841   -0.1542 H         1 ACP         0.2048
     46 H2         -1.5932    4.4937    3.7066 H         1 ACP        -0.1292
     47 H47        -2.8098    5.8270    2.1160 H         1 ACP         0.2048
@<TRIPOS>BOND
     1    1    2 2
     2    1    3 1
     3    1    4 1
     4    1    8 1
     5    4   32 1
     6    5    6 2
     7    5    7 1
     8    5    8 1
     9    5   12 1
    10    8   33 1
    11    8   34 1
    12    9   10 2
    13    9   11 1
    14    9   12 1
    15    9   13 1
    16   13   14 1
    17   14   15 1
    18   14   35 1
    19   14   36 1
    20   15   16 1
    21   15   17 1
    22   15   37 1
    23   16   21 1
    24   17   18 1
    25   17   19 1
    26   17   38 1
    27   18   39 1
    28   19   20 1
    29   19   21 1
    30   19   40 1
    31   20   41 1
    32   21   22 1
    33   21   42 1
    34   22   23 ar
    35   22   31 ar
    36   23   24 ar
    37   23   43 1
    38   24   25 ar
    39   25   26 ar
    40   25   31 ar
    41   26   27 1
    42   26   28 ar
    43   27   44 1
    44   27   45 1
    45   28   29 ar
    46   28   47 1
    47   29   30 ar
    48   29   46 1
    49   30   31 ar
@<TRIPOS>SUBSTRUCTURE
     1 ACP         1 GROUP 0 A     ****
@<TRIPOS>MOLECULE
[[5-(6-amino-1,8-dihydropurine-6,8-diylium-7-id-9-yl)-3,4-dihydroxy-tetrahydrofuran-2-yl]methoxy-oxido-phosphoryl]oxy-[[hydroxy(oxido)phosphoryl]methyl]phosphinate
   47    49     1     0     0
SMALL
USER_CHARGES

@<TRIPOS>ATOM
      1 PG         -0.8987    2.4231   -6.3893 P.3       1 ACP        -1.2804
      2 O1G        -2.3826    2.6624   -6.2362 O.co2     1 ACP         0.3195
      3 O2G        -0.3455    1.1227   -6.9251 O.co2     1 ACP         0.3195
      4 O3G        -0.2297    3.6697   -7.2007 O.3       1 ACP         0.0326
      5 PB          1.7026    2.5494   -4.4418 P.3       1 ACP        -1.2804
      6 O1B         1.9503    2.8741   -2.9872 O.co2     1 ACP         0.3195
      7 O2B         2.4153    3.2742   -5.5603 O.co2     1 ACP         0.3195
      8 C3B        -0.1120    2.7213   -4.7448 C.3       1 ACP         0.8942
      9 PA          3.0653   -0.0868   -4.4294 P.3       1 ACP        -1.1062
     10 O1A         4.2789    0.4515   -5.1554 O.co2     1 ACP         0.3195
     11 O2A         2.5799   -1.4982   -4.6803 O.co2     1 ACP         0.3195
     12 O3A         1.8195    0.9401   -4.6753 O.3       1 ACP         0.4672
     13 O5'         3.2883    0.1336   -2.8242 O.3       1 ACP         0.1618
     14 C5'         2.2816   -0.2918   -1.9206 C.3       1 ACP         0.1504
     15 C4'         2.7248    0.0226   -0.4980 C.3       1 ACP         0.1111
     16 O4'         2.4697    1.4219   -0.2462 O.3       1 ACP        -0.1436
     17 C3'         1.9404   -0.7419    0.5596 C.3       1 ACP         0.1111
     18 O3'         2.7418   -0.8086    1.7389 O.3       1 ACP        -0.2728
     19 C2'         0.7477    0.1630    0.7858 C.3       1 ACP         0.1111
     20 O2'         0.1373   -0.0577    2.0407 O.3       1 ACP        -0.2728
     21 C1'         1.3733    1.5427    0.6747 C.3       1 ACP         0.2693
     22 N9          0.4520    2.5240    0.1767 N.pl3     1 ACP        -0.3222
     23 C8         -0.7463    2.2774   -0.7501 C.ar      1 ACP         0.1640
     24 N7         -1.3714    3.4419   -0.9948 N.2       1 ACP        -0.1640
     25 C5         -0.6104    4.3223   -0.2723 C.ar      1 ACP         0.0820
     26 C6         -0.9062    5.7820   -0.2194 C.ar      1 ACP         0.1640
     27 N6         -1.9385    6.2713   -0.8881 N.pl3     1 ACP        -0.4916
     28 N1         -0.0613    6.4906    0.5336 N.pl3     1 ACP        -0.4390
     29 C2          1.0416    5.8662    1.2291 C.ar      1 ACP         0.5691
     30 N3          1.3146    4.5989    1.1954 N.ar      1 ACP        -0.4283
     31 C4          0.4541    3.8697    0.4273 C.ar      1 ACP         0.2226
     32 HOG3       -0.5482    3.8617   -8.1084 H         1 ACP         0.2010
     33 H3B1       -0.6100    2.0431   -4.0430 H         1 ACP        -0.0393
     34 H3B2       -0.3740    3.7444   -4.4531 H         1 ACP        -0.0393
     35 H5'1        1.3500    0.2325   -2.1560 H         1 ACP        -0.0393
     36 H5'2        2.1267   -1.3683   -2.0444 H         1 ACP        -0.0393
     37 H4'         3.8046   -0.1390   -0.4011 H         1 ACP        -0.0393
     38 H3'         1.6787   -1.7627    0.2719 H         1 ACP        -0.0393
     39 HO3'        2.2231   -1.2979    2.3952 H         1 ACP         0.2010
     40 H2'         0.0002   -0.0084   -0.0014 H         1 ACP        -0.0393
     41 HO2'       -0.6132    0.5577    2.1063 H         1 ACP         0.2010
     42 H1'         1.7718    1.9211    1.6015 H         1 ACP        -0.0393
     43 H8         -1.1244    1.3534   -1.1987 H         1 ACP         0.0000
     44 HN61       -2.5259    5.6573   -1.4336 H         1 ACP         0.2048
     45 HN62       -2.1416    7.2600   -0.8539 H         1 ACP         0.2048
     46 H2          1.6509    6.5764    1.8088 H         1 ACP        -0.1292
     47 H47        -0.2190    7.4917    0.6033 H         1 ACP         0.2048
@<TRIPOS>BOND
     1    1    2 2
     2    1    3 1
     3    1    4 1
     4    1    8 1
     5    4   32 1
     6    5    6 2
     7    5    7 1
     8    5    8 1
     9    5   12 1
    10    8   33 1
    11    8   34 1
    12    9   10 2
    13    9   11 1
    14    9   12 1
    15    9   13 1
    16   13   14 1
    17   14   15 1
    18   14   35 1
    19   14   36 1
    20   15   16 1
    21   15   17 1
    22   15   37 1
    23   16   21 1
    24   17   18 1
    25   17   19 1
    26   17   38 1
    27   18   39 1
    28   19   20 1
    29   19   21 1
    30   19   40 1
    31   20   41 1
    32   21   22 1
    33   21   42 1
    34   22   23 ar
    35   22   31 ar
    36   23   24 ar
    37   23   43 1
    38   24   25 ar
    39   25   26 ar
    40   25   31 ar
    41   26   27 1
    42   26   28 ar
    43   27   44 1
    44   27   45 1
    45   28   29 ar
    46   28   47 1
    47   29   30 ar
    48   29   46 1
    49   30   31 ar
@<TRIPOS>SUBSTRUCTURE
     1 ACP         1 GROUP 0 A     ****
@<TRIPOS>MOLECULE
[[5-(6-amino-1,8-dihydropurine-6,8-diylium-7-id-9-yl)-3,4-dihydroxy-tetrahydrofuran-2-yl]methoxy-oxido-phosphoryl]oxy-[[hydroxy(oxido)phosphoryl]methyl]phosphinate
   47    49     1     0     0
SMALL
USER_CHARGES

@<TRIPOS>ATOM
      1 PG          0.0352   -0.3805   -6.7964 P.3       1 ACP        -1.2804
      2 O1G        -1.3655   -0.8417   -7.1254 O.co2     1 ACP         0.3195
      3 O2G         0.7861    0.5961   -7.6720 O.co2     1 ACP         0.3195
      4 O3G         0.0876    0.1311   -5.2487 O.3       1 ACP         0.0326
      5 PB          2.8931   -1.8182   -6.2129 P.3       1 ACP        -1.2804
      6 O1B         3.5735   -1.0368   -7.3125 O.co2     1 ACP         0.3195
      7 O2B         3.3217   -3.2181   -5.8373 O.co2     1 ACP         0.3195
      8 C3B         1.0913   -1.8853   -6.6168 C.3       1 ACP         0.8942
      9 PA          3.9534   -0.2075   -3.9573 P.3       1 ACP        -1.1062
     10 O1A         4.6225    0.8729   -4.7788 O.co2     1 ACP         0.3195
     11 O2A         4.7732   -1.3027   -3.3100 O.co2     1 ACP         0.3195
     12 O3A         2.7896   -0.9020   -4.8683 O.3       1 ACP         0.4672
     13 O5'         3.0198    0.5138   -2.8245 O.3       1 ACP         0.1618
     14 C5'         2.2816   -0.2918   -1.9206 C.3       1 ACP         0.1504
     15 C4'         2.7248    0.0226   -0.4980 C.3       1 ACP         0.1111
     16 O4'         2.4697    1.4219   -0.2462 O.3       1 ACP        -0.1436
     17 C3'         1.9404   -0.7419    0.5596 C.3       1 ACP         0.1111
     18 O3'         2.7418   -0.8086    1.7389 O.3       1 ACP        -0.2728
     19 C2'         0.7477    0.1630    0.7858 C.3       1 ACP         0.1111
     20 O2'         0.1373   -0.0577    2.0407 O.3       1 ACP        -0.2728
     21 C1'         1.3733    1.5427    0.6747 C.3       1 ACP         0.2693
     22 N9          0.4520    2.5240    0.1767 N.pl3     1 ACP        -0.3222
     23 C8          0.1798    2.8712   -1.2933 C.ar      1 ACP         0.1640
     24 N7         -0.7494    3.8400   -1.3610 N.2       1 ACP        -0.1640
     25 C5         -1.0173    4.0603   -0.0358 C.ar      1 ACP         0.0820
     26 C6         -2.0105    5.0717    0.4241 C.ar      1 ACP         0.1640
     27 N6         -2.6723    5.7982   -0.4628 N.pl3     1 ACP        -0.4916
     28 N1         -2.1445    5.1522    1.7502 N.pl3     1 ACP        -0.4390
     29 C2         -1.3755    4.3143    2.6426 C.ar      1 ACP         0.5691
     30 N3         -0.5075    3.4292    2.2616 N.ar      1 ACP        -0.4283
     31 C4         -0.3667    3.3425    0.9070 C.ar      1 ACP         0.2226
     32 HOG3       -0.4914    0.8769   -4.9827 H         1 ACP         0.2010
     33 H3B1        1.0048   -2.4311   -7.5629 H         1 ACP        -0.0393
     34 H3B2        0.6275   -2.5024   -5.8392 H         1 ACP        -0.0393
     35 H5'1        1.2153   -0.0781   -2.0454 H         1 ACP        -0.0393
     36 H5'2        2.4645   -1.3454   -2.1547 H         1 ACP        -0.0393
     37 H4'         3.8046   -0.1390   -0.4011 H         1 ACP        -0.0393
     38 H3'         1.6787   -1.7627    0.2719 H         1 ACP        -0.0393
     39 HO3'        2.2231   -1.2979    2.3952 H         1 ACP         0.2010
     40 H2'         0.0002   -0.0084   -0.0014 H         1 ACP        -0.0393
     41 HO2'       -0.6132    0.5577    2.1063 H         1 ACP         0.2010
     42 H1'         1.7718    1.9211    1.6015 H         1 ACP        -0.0393
     43 H8          0.6089    2.4651   -2.2147 H         1 ACP         0.0000
     44 HN61       -2.5055    5.6680   -1.4503 H         1 ACP         0.2048
     45 HN62       -3.3462    6.4841   -0.1542 H         1 ACP         0.2048
     46 H2         -1.5932    4.4937    3.7066 H         1 ACP        -0.1292
     47 H47        -2.8098    5.8270    2.1160 H         1 ACP         0.2048
@<TRIPOS>BOND
     1    1    2 2
     2    1    3 1
     3    1    4 1
     4    1    8 1
     5    4   32 1
     6    5    6 2
     7    5    7 1
     8    5    8 1
     9    5   12 1
    10    8   33 1
    11    8   34 1
    12    9   10 2
    13    9   11 1
    14    9   12 1
    15    9   13 1
    16   13   14 1
    17   14   15 1
    18   14   35 1
    19   14   36 1
    20   15   16 1
    21   15   17 1
    22   15   37 1
    23   16   21 1
    24   17   18 1
    25   17   19 1
    26   17   38 1
    27   18   39 1
    28   19   20 1
    29   19   21 1
    30   19   40 1
    31   20   41 1
    32   21   22 1
    33   21   42 1
    34   22   23 ar
    35   22   31 ar
    36   23   24 ar
    37   23   43 1
    38   24   25 ar
    39   25   26 ar
    40   25   31 ar
    41   26   27 1
    42   26   28 ar
    43   27   44 1
    44   27   45 1
    45   28   29 ar
    46   28   47 1
    47   29   30 ar
    48   29   46 1
    49   30   31 ar
@<TRIPOS>SUBSTRUCTURE
     1 ACP         1 GROUP 0 A     ****
@<TRIPOS>MOLECULE
[[5-(6-amino-1,8-dihydropurine-6,8-diylium-7-id-9-yl)-3,4-dihydroxy-tetrahydrofuran-2-yl]methoxy-oxido-phosphoryl]oxy-[[hydroxy(oxido)phosphoryl]methyl]phosphinate
   47    49     1     0     0
SMALL
USER_CHARGES

@<TRIPOS>ATOM
      1 PG         -0.1528    0.8076   -5.6809 P.3       1 ACP        -1.2804
      2 O1G        -0.8941    0.4859   -4.4042 O.co2     1 ACP         0.3195
      3 O2G        -0.8141    1.5253   -6.8349 O.co2     1 ACP         0.3195
      4 O3G         1.2539    1.5491   -5.3186 O.3       1 ACP         0.0326
      5 PB          1.7357   -1.8251   -5.4014 P.3       1 ACP        -1.2804
      6 O1B         2.9625   -0.9848   -5.1341 O.co2     1 ACP         0.3195
      7 O2B         1.8124   -3.1581   -6.1094 O.co2     1 ACP         0.3195
      8 C3B         0.5397   -0.7736   -6.3385 C.3       1 ACP         0.8942
      9 PA          1.2676   -2.6330   -2.5845 P.3       1 ACP        -1.1062
     10 O1A         1.8014   -4.0298   -2.8163 O.co2     1 ACP         0.3195
     11 O2A         0.1253   -2.3943   -1.6209 O.co2     1 ACP         0.3195
     12 O3A         0.8686   -1.9867   -4.0302 O.3       1 ACP         0.4672
     13 O5'         2.5237   -1.6631   -2.1889 O.3       1 ACP         0.1618
     14 C5'         2.2816   -0.2918   -1.9206 C.3       1 ACP         0.1504
     15 C4'         2.7248    0.0226   -0.4980 C.3       1 ACP         0.1111
     16 O4'         2.4697    1.4219   -0.2462 O.3       1 ACP        -0.1436
     17 C3'         1.9404   -0.7419    0.5596 C.3       1 ACP         0.1111
     18 O3'         2.7418   -0.8086    1.7389 O.3       1 ACP        -0.2728
     19 C2'         0.7477    0.1630    0.7858 C.3       1 ACP         0.1111
     20 O2'         0.1373   -0.0577    2.0407 O.3       1 ACP        -0.2728
     21 C1'         1.3733    1.5427    0.6747 C.3       1 ACP         0.2693
     22 N9          0.4520    2.5240    0.1767 N.pl3     1 ACP        -0.3222
     23 C8          0.1798    2.8712   -1.2933 C.ar      1 ACP         0.1640
     24 N7         -0.7494    3.8400   -1.3610 N.2       1 ACP        -0.1640
     25 C5         -1.0173    4.0603   -0.0358 C.ar      1 ACP         0.0820
     26 C6         -2.0105    5.0717    0.4241 C.ar      1 ACP         0.1640
     27 N6         -2.6723    5.7982   -0.4628 N.pl3     1 ACP        -0.4916
     28 N1         -2.1445    5.1522    1.7502 N.pl3     1 ACP        -0.4390
     29 C2         -1.3755    4.3143    2.6426 C.ar      1 ACP         0.5691
     30 N3         -0.5075    3.4292    2.2616 N.ar      1 ACP        -0.4283
     31 C4         -0.3667    3.3425    0.9070 C.ar      1 ACP         0.2226
     32 HOG3        1.2225    2.3967   -4.8259 H         1 ACP         0.2010
     33 H3B1        1.0254   -0.5205   -7.2874 H         1 ACP        -0.0393
     34 H3B2       -0.3158   -1.4178   -6.5702 H         1 ACP        -0.0393
     35 H5'1        2.8429    0.3140   -2.6391 H         1 ACP        -0.0393
     36 H5'2        1.2125   -0.0906   -2.0420 H         1 ACP        -0.0393
     37 H4'         3.8046   -0.1390   -0.4011 H         1 ACP        -0.0393
     38 H3'         1.6787   -1.7627    0.2719 H         1 ACP        -0.0393
     39 HO3'        2.2231   -1.2979    2.3952 H         1 ACP         0.2010
     40 H2'         0.0002   -0.0084   -0.0014 H         1 ACP        -0.0393
     41 HO2'       -0.6132    0.5577    2.1063 H         1 ACP         0.2010
     42 H1'         1.7718    1.9211    1.6015 H         1 ACP        -0.0393
     43 H8          0.6089    2.4651   -2.2147 H         1 ACP         0.0000
     44 HN61       -2.5055    5.6680   -1.4503 H         1 ACP         0.2048
     45 HN62       -3.3462    6.4841   -0.1542 H         1 ACP         0.2048
     46 H2         -1.5932    4.4937    3.7066 H         1 ACP        -0.1292
     47 H47        -2.8098    5.8270    2.1160 H         1 ACP         0.2048
@<TRIPOS>BOND
     1    1    2 2
     2    1    3 1
     3    1    4 1
     4    1    8 1
     5    4   32 1
     6    5    6 2
     7    5    7 1
     8    5    8 1
     9    5   12 1
    10    8   33 1
    11    8   34 1
    12    9   10 2
    13    9   11 1
    14    9   12 1
    15    9   13 1
    16   13   14 1
    17   14   15 1
    18   14   35 1
    19   14   36 1
    20   15   16 1
    21   15   17 1
    22   15   37 1
    23   16   21 1
    24   17   18 1
    25   17   19 1
    26   17   38 1
    27   18   39 1
    28   19   20 1
    29   19   21 1
    30   19   40 1
    31   20   41 1
    32   21   22 1
    33   21   42 1
    34   22   23 ar
    35   22   31 ar
    36   23   24 ar
    37   23   43 1
    38   24   25 ar
    39   25   26 ar
    40   25   31 ar
    41   26   27 1
    42   26   28 ar
    43   27   44 1
    44   27   45 1
    45   28   29 ar
    46   28   47 1
    47   29   30 ar
    48   29   46 1
    49   30   31 ar
@<TRIPOS>SUBSTRUCTURE
     1 ACP         1 GROUP 0 A     ****
@<TRIPOS>MOLECULE
[[5-(6-amino-1,8-dihydropurine-6,8-diylium-7-id-9-yl)-3,4-dihydroxy-tetrahydrofuran-2-yl]methoxy-oxido-phosphoryl]oxy-[[hydroxy(oxido)phosphoryl]methyl]phosphinate
   47    49     1     0     0
SMALL
USER_CHARGES

@<TRIPOS>ATOM
      1 PG          3.9468   -4.5744   -1.2258 P.3       1 ACP        -1.2804
      2 O1G         4.0378   -6.0763   -1.0889 O.co2     1 ACP         0.3195
      3 O2G         2.6726   -3.8821   -1.6517 O.co2     1 ACP         0.3195
      4 O3G         4.5157   -3.8712    0.1314 O.3       1 ACP         0.0326
      5 PB          5.5620   -2.2740   -2.8611 P.3       1 ACP        -1.2804
      6 O1B         6.7324   -2.2453   -3.8161 O.co2     1 ACP         0.3195
      7 O2B         5.5410   -1.4567   -1.5899 O.co2     1 ACP         0.3195
      8 C3B         5.2808   -4.0370   -2.3851 C.3       1 ACP         0.8942
      9 PA          3.4821   -0.6660   -4.2377 P.3       1 ACP        -1.1062
     10 O1A         2.1119   -1.0079   -4.7812 O.co2     1 ACP         0.3195
     11 O2A         4.4908    0.0668   -5.0956 O.co2     1 ACP         0.3195
     12 O3A         4.1739   -2.0373   -3.6828 O.3       1 ACP         0.4672
     13 O5'         3.2883    0.1336   -2.8242 O.3       1 ACP         0.1618
     14 C5'         2.2816   -0.2918   -1.9206 C.3       1 ACP         0.1504
     15 C4'         2.7248    0.0226   -0.4980 C.3       1 ACP         0.1111
     16 O4'         2.4697    1.4219   -0.2462 O.3       1 ACP        -0.1436
     17 C3'         1.9404   -0.7419    0.5596 C.3       1 ACP         0.1111
     18 O3'         2.7418   -0.8086    1.7389 O.3       1 ACP        -0.2728
     19 C2'         0.7477    0.1630    0.7858 C.3       1 ACP         0.1111
     20 O2'         0.1373   -0.0577    2.0407 O.3       1 ACP        -0.2728
     21 C1'         1.3733    1.5427    0.6747 C.3       1 ACP         0.2693
     22 N9          0.4520    2.5240    0.1767 N.pl3     1 ACP        -0.3222
     23 C8          0.1798    2.8712   -1.2933 C.ar      1 ACP         0.1640
     24 N7         -0.7494    3.8400   -1.3610 N.2       1 ACP        -0.1640
     25 C5         -1.0173    4.0603   -0.0358 C.ar      1 ACP         0.0820
     26 C6         -2.0105    5.0717    0.4241 C.ar      1 ACP         0.1640
     27 N6         -2.6723    5.7982   -0.4628 N.pl3     1 ACP        -0.4916
     28 N1         -2.1445    5.1522    1.7502 N.pl3     1 ACP        -0.4390
     29 C2         -1.3755    4.3143    2.6426 C.ar      1 ACP         0.5691
     30 N3         -0.5075    3.4292    2.2616 N.ar      1 ACP        -0.4283
     31 C4         -0.3667    3.3425    0.9070 C.ar      1 ACP         0.2226
     32 HOG3        4.0736   -4.0731    0.9834 H         1 ACP         0.2010
     33 H3B1        5.1123   -4.5877   -3.3172 H         1 ACP        -0.0393
     34 H3B2        6.2263   -4.3927   -1.9609 H         1 ACP        -0.0393
     35 H5'1        1.3500    0.2325   -2.1560 H         1 ACP        -0.0393
     36 H5'2        2.1267   -1.3683   -2.0444 H         1 ACP        -0.0393
     37 H4'         3.8046   -0.1390   -0.4011 H         1 ACP        -0.0393
     38 H3'         1.6787   -1.7627    0.2719 H         1 ACP        -0.0393
     39 HO3'        2.2231   -1.2979    2.3952 H         1 ACP         0.2010
     40 H2'         0.0002   -0.0084   -0.0014 H         1 ACP        -0.0393
     41 HO2'       -0.6132    0.5577    2.1063 H         1 ACP         0.2010
     42 H1'         1.7718    1.9211    1.6015 H         1 ACP        -0.0393
     43 H8          0.6089    2.4651   -2.2147 H         1 ACP         0.0000
     44 HN61       -2.5055    5.6680   -1.4503 H         1 ACP         0.2048
     45 HN62       -3.3462    6.4841   -0.1542 H         1 ACP         0.2048
     46 H2         -1.5932    4.4937    3.7066 H         1 ACP        -0.1292
     47 H47        -2.8098    5.8270    2.1160 H         1 ACP         0.2048
@<TRIPOS>BOND
     1    1    2 2
     2    1    3 1
     3    1    4 1
     4    1    8 1
     5    4   32 1
     6    5    6 2
     7    5    7 1
     8    5    8 1
     9    5   12 1
    10    8   33 1
    11    8   34 1
    12    9   10 2
    13    9   11 1
    14    9   12 1
    15    9   13 1
    16   13   14 1
    17   14   15 1
    18   14   35 1
    19   14   36 1
    20   15   16 1
    21   15   17 1
    22   15   37 1
    23   16   21 1
    24   17   18 1
    25   17   19 1
    26   17   38 1
    27   18   39 1
    28   19   20 1
    29   19   21 1
    30   19   40 1
    31   20   41 1
    32   21   22 1
    33   21   42 1
    34   22   23 ar
    35   22   31 ar
    36   23   24 ar
    37   23   43 1
    38   24   25 ar
    39   25   26 ar
    40   25   31 ar
    41   26   27 1
    42   26   28 ar
    43   27   44 1
    44   27   45 1
    45   28   29 ar
    46   28   47 1
    47   29   30 ar
    48   29   46 1
    49   30   31 ar
@<TRIPOS>SUBSTRUCTURE
     1 ACP         1 GROUP 0 A     ****
@<TRIPOS>MOLECULE
[[5-(6-amino-1,8-dihydropurine-6,8-diylium-7-id-9-yl)-3,4-dihydroxy-tetrahydrofuran-2-yl]methoxy-oxido-phosphoryl]oxy-[[hydroxy(oxido)phosphoryl]methyl]phosphinate
   47    49     1     0     0
SMALL
USER_CHARGES

@<TRIPOS>ATOM
      1 PG          4.4673   -0.9070   -6.7860 P.3       1 ACP        -1.2804
      2 O1G         4.7822   -0.7292   -5.3190 O.co2     1 ACP         0.3195
      3 O2G         5.1103   -0.0537   -7.8550 O.co2     1 ACP         0.3195
      4 O3G         4.6207   -2.4806   -7.1862 O.3       1 ACP         0.0326
      5 PB          1.4292   -1.8769   -6.1501 P.3       1 ACP        -1.2804
      6 O1B         1.7224   -3.2845   -6.6140 O.co2     1 ACP         0.3195
      7 O2B         0.0612   -1.2507   -6.2951 O.co2     1 ACP         0.3195
      8 C3B         2.6372   -0.7568   -6.9869 C.3       1 ACP         0.8942
      9 PA          1.5537   -2.4539   -3.2418 P.3       1 ACP        -1.1062
     10 O1A         2.0300   -3.8868   -3.3414 O.co2     1 ACP         0.3195
     11 O2A         0.1072   -2.1427   -2.9238 O.co2     1 ACP         0.3195
     12 O3A         1.9587   -1.6787   -4.6209 O.3       1 ACP         0.4672
     13 O5'         2.5237   -1.6631   -2.1889 O.3       1 ACP         0.1618
     14 C5'         2.2816   -0.2918   -1.9206 C.3       1 ACP         0.1504
     15 C4'         2.7248    0.0226   -0.4980 C.3       1 ACP         0.1111
     16 O4'         2.4697    1.4219   -0.2462 O.3       1 ACP        -0.1436
     17 C3'         1.9404   -0.7419    0.5596 C.3       1 ACP         0.1111
     18 O3'         2.7418   -0.8086    1.7389 O.3       1 ACP        -0.2728
     19 C2'         0.7477    0.1630    0.7858 C.3       1 ACP         0.1111
     20 O2'         0.1373   -0.0577    2.0407 O.3       1 ACP        -0.2728
     21 C1'         1.3733    1.5427    0.6747 C.3       1 ACP         0.2693
     22 N9          0.4520    2.5240    0.1767 N.pl3     1 ACP        -0.3222
     23 C8          0.1798    2.8712   -1.2933 C.ar      1 ACP         0.1640
     24 N7         -0.7494    3.8400   -1.3610 N.2       1 ACP        -0.1640
     25 C5         -1.0173    4.0603   -0.0358 C.ar      1 ACP         0.0820
     26 C6         -2.0105    5.0717    0.4241 C.ar      1 ACP         0.1640
     27 N6         -2.6723    5.7982   -0.4628 N.pl3     1 ACP        -0.4916
     28 N1         -2.1445    5.1522    1.7502 N.pl3     1 ACP        -0.4390
     29 C2         -1.3755    4.3143    2.6426 C.ar      1 ACP         0.5691
     30 N3         -0.5075    3.4292    2.2616 N.ar      1 ACP        -0.4283
     31 C4         -0.3667    3.3425    0.9070 C.ar      1 ACP         0.2226
     32 HOG3        5.4929   -2.9118   -7.0625 H         1 ACP         0.2010
     33 H3B1        2.4426   -0.8373   -8.0622 H         1 ACP        -0.0393
     34 H3B2        2.3711    0.2612   -6.6813 H         1 ACP        -0.0393
     35 H5'1        2.8429    0.3140   -2.6391 H         1 ACP        -0.0393
     36 H5'2        1.2125   -0.0906   -2.0420 H         1 ACP        -0.0393
     37 H4'         3.8046   -0.1390   -0.4011 H         1 ACP        -0.0393
     38 H3'         1.6787   -1.7627    0.2719 H         1 ACP        -0.0393
     39 HO3'        2.2231   -1.2979    2.3952 H         1 ACP         0.2010
     40 H2'         0.0002   -0.0084   -0.0014 H         1 ACP        -0.0393
     41 HO2'       -0.6132    0.5577    2.1063 H         1 ACP         0.2010
     42 H1'         1.7718    1.9211    1.6015 H         1 ACP        -0.0393
     43 H8          0.6089    2.4651   -2.2147 H         1 ACP         0.0000
     44 HN61       -2.5055    5.6680   -1.4503 H         1 ACP         0.2048
     45 HN62       -3.3462    6.4841   -0.1542 H         1 ACP         0.2048
     46 H2         -1.5932    4.4937    3.7066 H         1 ACP        -0.1292
     47 H47        -2.8098    5.8270    2.1160 H         1 ACP         0.2048
@<TRIPOS>BOND
     1    1    2 2
     2    1    3 1
     3    1    4 1
     4    1    8 1
     5    4   32 1
     6    5    6 2
     7    5    7 1
     8    5    8 1
     9    5   12 1
    10    8   33 1
    11    8   34 1
    12    9   10 2
    13    9   11 1
    14    9   12 1
    15    9   13 1
    16   13   14 1
    17   14   15 1
    18   14   35 1
    19   14   36 1
    20   15   16 1
    21   15   17 1
    22   15   37 1
    23   16   21 1
    24   17   18 1
    25   17   19 1
    26   17   38 1
    27   18   39 1
    28   19   20 1
    29   19   21 1
    30   19   40 1
    31   20   41 1
    32   21   22 1
    33   21   42 1
    34   22   23 ar
    35   22   31 ar
    36   23   24 ar
    37   23   43 1
    38   24   25 ar
    39   25   26 ar
    40   25   31 ar
    41   26   27 1
    42   26   28 ar
    43   27   44 1
    44   27   45 1
    45   28   29 ar
    46   28   47 1
    47   29   30 ar
    48   29   46 1
    49   30   31 ar
@<TRIPOS>SUBSTRUCTURE
     1 ACP         1 GROUP 0 A     ****
@<TRIPOS>MOLECULE
[[5-(6-amino-1,8-dihydropurine-6,8-diylium-7-id-9-yl)-3,4-dihydroxy-tetrahydrofuran-2-yl]methoxy-oxido-phosphoryl]oxy-[[hydroxy(oxido)phosphoryl]methyl]phosphinate
   47    49     1     0     0
SMALL
USER_CHARGES

@<TRIPOS>ATOM
      1 PG          0.4147   -3.5237   -4.9785 P.3       1 ACP        -1.2804
      2 O1G        -1.0255   -3.7770   -5.3587 O.co2     1 ACP         0.3195
      3 O2G         0.8038   -2.9743   -3.6254 O.co2     1 ACP         0.3195
      4 O3G         1.3011   -4.8555   -5.2957 O.3       1 ACP         0.0326
      5 PB          2.8931   -1.8182   -6.2129 P.3       1 ACP        -1.2804
      6 O1B         3.1027   -0.9332   -7.4194 O.co2     1 ACP         0.3195
      7 O2B         3.7648   -3.0217   -5.9370 O.co2     1 ACP         0.3195
      8 C3B         1.1423   -2.4070   -6.2574 C.3       1 ACP         0.8942
      9 PA          3.9534   -0.2075   -3.9573 P.3       1 ACP        -1.1062
     10 O1A         4.6225    0.8729   -4.7788 O.co2     1 ACP         0.3195
     11 O2A         4.7732   -1.3027   -3.3100 O.co2     1 ACP         0.3195
     12 O3A         2.7896   -0.9020   -4.8683 O.3       1 ACP         0.4672
     13 O5'         3.0198    0.5138   -2.8245 O.3       1 ACP         0.1618
     14 C5'         2.2816   -0.2918   -1.9206 C.3       1 ACP         0.1504
     15 C4'         2.7248    0.0226   -0.4980 C.3       1 ACP         0.1111
     16 O4'         2.4697    1.4219   -0.2462 O.3       1 ACP        -0.1436
     17 C3'         1.9404   -0.7419    0.5596 C.3       1 ACP         0.1111
     18 O3'         2.7418   -0.8086    1.7389 O.3       1 ACP        -0.2728
     19 C2'         0.7477    0.1630    0.7858 C.3       1 ACP         0.1111
     20 O2'         0.1373   -0.0577    2.0407 O.3       1 ACP        -0.2728
     21 C1'         1.3733    1.5427    0.6747 C.3       1 ACP         0.2693
     22 N9          0.4520    2.5240    0.1767 N.pl3     1 ACP        -0.3222
     23 C8          0.1798    2.8712   -1.2933 C.ar      1 ACP         0.1640
     24 N7         -0.7494    3.8400   -1.3610 N.2       1 ACP        -0.1640
     25 C5         -1.0173    4.0603   -0.0358 C.ar      1 ACP         0.0820
     26 C6         -2.0105    5.0717    0.4241 C.ar      1 ACP         0.1640
     27 N6         -2.6723    5.7982   -0.4628 N.pl3     1 ACP        -0.4916
     28 N1         -2.1445    5.1522    1.7502 N.pl3     1 ACP        -0.4390
     29 C2         -1.3755    4.3143    2.6426 C.ar      1 ACP         0.5691
     30 N3         -0.5075    3.4292    2.2616 N.ar      1 ACP        -0.4283
     31 C4         -0.3667    3.3425    0.9070 C.ar      1 ACP         0.2226
     32 HOG3        1.0653   -5.6931   -4.8430 H         1 ACP         0.2010
     33 H3B1        0.5129   -1.5102   -6.2703 H         1 ACP        -0.0393
     34 H3B2        1.0145   -2.9105   -7.2221 H         1 ACP        -0.0393
     35 H5'1        1.2153   -0.0781   -2.0454 H         1 ACP        -0.0393
     36 H5'2        2.4645   -1.3454   -2.1547 H         1 ACP        -0.0393
     37 H4'         3.8046   -0.1390   -0.4011 H         1 ACP        -0.0393
     38 H3'         1.6787   -1.7627    0.2719 H         1 ACP        -0.0393
     39 HO3'        2.2231   -1.2979    2.3952 H         1 ACP         0.2010
     40 H2'         0.0002   -0.0084   -0.0014 H         1 ACP        -0.0393
     41 HO2'       -0.6132    0.5577    2.1063 H         1 ACP         0.2010
     42 H1'         1.7718    1.9211    1.6015 H         1 ACP        -0.0393
     43 H8          0.6089    2.4651   -2.2147 H         1 ACP         0.0000
     44 HN61       -2.5055    5.6680   -1.4503 H         1 ACP         0.2048
     45 HN62       -3.3462    6.4841   -0.1542 H         1 ACP         0.2048
     46 H2         -1.5932    4.4937    3.7066 H         1 ACP        -0.1292
     47 H47        -2.8098    5.8270    2.1160 H         1 ACP         0.2048
@<TRIPOS>BOND
     1    1    2 2
     2    1    3 1
     3    1    4 1
     4    1    8 1
     5    4   32 1
     6    5    6 2
     7    5    7 1
     8    5    8 1
     9    5   12 1
    10    8   33 1
    11    8   34 1
    12    9   10 2
    13    9   11 1
    14    9   12 1
    15    9   13 1
    16   13   14 1
    17   14   15 1
    18   14   35 1
    19   14   36 1
    20   15   16 1
    21   15   17 1
    22   15   37 1
    23   16   21 1
    24   17   18 1
    25   17   19 1
    26   17   38 1
    27   18   39 1
    28   19   20 1
    29   19   21 1
    30   19   40 1
    31   20   41 1
    32   21   22 1
    33   21   42 1
    34   22   23 ar
    35   22   31 ar
    36   23   24 ar
    37   23   43 1
    38   24   25 ar
    39   25   26 ar
    40   25   31 ar
    41   26   27 1
    42   26   28 ar
    43   27   44 1
    44   27   45 1
    45   28   29 ar
    46   28   47 1
    47   29   30 ar
    48   29   46 1
    49   30   31 ar
@<TRIPOS>SUBSTRUCTURE
     1 ACP         1 GROUP 0 A     ****
@<TRIPOS>MOLECULE
[[5-(6-amino-1,8-dihydropurine-6,8-diylium-7-id-9-yl)-3,4-dihydroxy-tetrahydrofuran-2-yl]methoxy-oxido-phosphoryl]oxy-[[hydroxy(oxido)phosphoryl]methyl]phosphinate
   47    49     1     0     0
SMALL
USER_CHARGES

@<TRIPOS>ATOM
      1 PG          3.8246   -4.7482   -1.6567 P.3       1 ACP        -1.2804
      2 O1G         3.4368   -3.4182   -1.0540 O.co2     1 ACP         0.3195
      3 O2G         4.3663   -5.8830   -0.8182 O.co2     1 ACP         0.3195
      4 O3G         2.6027   -5.2989   -2.5860 O.3       1 ACP         0.0326
      5 PB          4.6852   -3.3686   -4.4730 P.3       1 ACP        -1.2804
      6 O1B         3.5263   -4.0061   -5.2032 O.co2     1 ACP         0.3195
      7 O2B         6.0021   -3.0758   -5.1545 O.co2     1 ACP         0.3195
      8 C3B         5.0522   -4.4177   -2.9969 C.3       1 ACP         0.8942
      9 PA          3.4821   -0.6660   -4.2377 P.3       1 ACP        -1.1062
     10 O1A         2.1119   -1.0079   -4.7812 O.co2     1 ACP         0.3195
     11 O2A         4.4908    0.0668   -5.0956 O.co2     1 ACP         0.3195
     12 O3A         4.1739   -2.0373   -3.6828 O.3       1 ACP         0.4672
     13 O5'         3.2883    0.1336   -2.8242 O.3       1 ACP         0.1618
     14 C5'         2.2816   -0.2918   -1.9206 C.3       1 ACP         0.1504
     15 C4'         2.7248    0.0226   -0.4980 C.3       1 ACP         0.1111
     16 O4'         2.4697    1.4219   -0.2462 O.3       1 ACP        -0.1436
     17 C3'         1.9404   -0.7419    0.5596 C.3       1 ACP         0.1111
     18 O3'         2.7418   -0.8086    1.7389 O.3       1 ACP        -0.2728
     19 C2'         0.7477    0.1630    0.7858 C.3       1 ACP         0.1111
     20 O2'         0.1373   -0.0577    2.0407 O.3       1 ACP        -0.2728
     21 C1'         1.3733    1.5427    0.6747 C.3       1 ACP         0.2693
     22 N9          0.4520    2.5240    0.1767 N.pl3     1 ACP        -0.3222
     23 C8          0.1798    2.8712   -1.2933 C.ar      1 ACP         0.1640
     24 N7         -0.7494    3.8400   -1.3610 N.2       1 ACP        -0.1640
     25 C5         -1.0173    4.0603   -0.0358 C.ar      1 ACP         0.0820
     26 C6         -2.0105    5.0717    0.4241 C.ar      1 ACP         0.1640
     27 N6         -2.6723    5.7982   -0.4628 N.pl3     1 ACP        -0.4916
     28 N1         -2.1445    5.1522    1.7502 N.pl3     1 ACP        -0.4390
     29 C2         -1.3755    4.3143    2.6426 C.ar      1 ACP         0.5691
     30 N3         -0.5075    3.4292    2.2616 N.ar      1 ACP        -0.4283
     31 C4         -0.3667    3.3425    0.9070 C.ar      1 ACP         0.2226
     32 HOG3        1.7307   -5.4582   -2.1660 H         1 ACP         0.2010
     33 H3B1        5.3543   -5.3988   -3.3801 H         1 ACP        -0.0393
     34 H3B2        5.9287   -3.9702   -2.5153 H         1 ACP        -0.0393
     35 H5'1        1.3500    0.2325   -2.1560 H         1 ACP        -0.0393
     36 H5'2        2.1267   -1.3683   -2.0444 H         1 ACP        -0.0393
     37 H4'         3.8046   -0.1390   -0.4011 H         1 ACP        -0.0393
     38 H3'         1.6787   -1.7627    0.2719 H         1 ACP        -0.0393
     39 HO3'        2.2231   -1.2979    2.3952 H         1 ACP         0.2010
     40 H2'         0.0002   -0.0084   -0.0014 H         1 ACP        -0.0393
     41 HO2'       -0.1554   -0.9852    2.0577 H         1 ACP         0.2010
     42 H1'         1.7718    1.9211    1.6015 H         1 ACP        -0.0393
     43 H8          0.6089    2.4651   -2.2147 H         1 ACP         0.0000
     44 HN61       -2.5055    5.6680   -1.4503 H         1 ACP         0.2048
     45 HN62       -3.3462    6.4841   -0.1542 H         1 ACP         0.2048
     46 H2         -1.5932    4.4937    3.7066 H         1 ACP        -0.1292
     47 H47        -2.8098    5.8270    2.1160 H         1 ACP         0.2048
@<TRIPOS>BOND
     1    1    2 2
     2    1    3 1
     3    1    4 1
     4    1    8 1
     5    4   32 1
     6    5    6 2
     7    5    7 1
     8    5    8 1
     9    5   12 1
    10    8   33 1
    11    8   34 1
    12    9   10 2
    13    9   11 1
    14    9   12 1
    15    9   13 1
    16   13   14 1
    17   14   15 1
    18   14   35 1
    19   14   36 1
    20   15   16 1
    21   15   17 1
    22   15   37 1
    23   16   21 1
    24   17   18 1
    25   17   19 1
    26   17   38 1
    27   18   39 1
    28   19   20 1
    29   19   21 1
    30   19   40 1
    31   20   41 1
    32   21   22 1
    33   21   42 1
    34   22   23 ar
    35   22   31 ar
    36   23   24 ar
    37   23   43 1
    38   24   25 ar
    39   25   26 ar
    40   25   31 ar
    41   26   27 1
    42   26   28 ar
    43   27   44 1
    44   27   45 1
    45   28   29 ar
    46   28   47 1
    47   29   30 ar
    48   29   46 1
    49   30   31 ar
@<TRIPOS>SUBSTRUCTURE
     1 ACP         1 GROUP 0 A     ****
@<TRIPOS>MOLECULE
[[5-(6-amino-1,8-dihydropurine-6,8-diylium-7-id-9-yl)-3,4-dihydroxy-tetrahydrofuran-2-yl]methoxy-oxido-phosphoryl]oxy-[[hydroxy(oxido)phosphoryl]methyl]phosphinate
   47    49     1     0     0
SMALL
USER_CHARGES

@<TRIPOS>ATOM
      1 PG          1.4080   -3.0633   -7.3067 P.3       1 ACP        -1.2804
      2 O1G         0.4152   -4.1952   -7.4331 O.co2     1 ACP         0.3195
      3 O2G         2.8401   -3.2942   -6.8827 O.co2     1 ACP         0.3195
      4 O3G         1.3860   -2.1686   -8.6701 O.3       1 ACP         0.0326
      5 PB          1.5457   -0.2441   -5.6916 P.3       1 ACP        -1.2804
      6 O1B         0.6408    0.5026   -4.7396 O.co2     1 ACP         0.3195
      7 O2B         2.0601    0.3798   -6.9686 O.co2     1 ACP         0.3195
      8 C3B         0.6862   -1.8129   -6.1544 C.3       1 ACP         0.8942
      9 PA          3.9534   -0.2075   -3.9573 P.3       1 ACP        -1.1062
     10 O1A         4.6225    0.8729   -4.7788 O.co2     1 ACP         0.3195
     11 O2A         4.7732   -1.3027   -3.3100 O.co2     1 ACP         0.3195
     12 O3A         2.7896   -0.9020   -4.8683 O.3       1 ACP         0.4672
     13 O5'         3.0198    0.5138   -2.8245 O.3       1 ACP         0.1618
     14 C5'         2.2816   -0.2918   -1.9206 C.3       1 ACP         0.1504
     15 C4'         2.7248    0.0226   -0.4980 C.3       1 ACP         0.1111
     16 O4'         2.4697    1.4219   -0.2462 O.3       1 ACP        -0.1436
     17 C3'         1.9404   -0.7419    0.5596 C.3       1 ACP         0.1111
     18 O3'         2.7418   -0.8086    1.7389 O.3       1 ACP        -0.2728
     19 C2'         0.7477    0.1630    0.7858 C.3       1 ACP         0.1111
     20 O2'         0.1373   -0.0577    2.0407 O.3       1 ACP        -0.2728
     21 C1'         1.3733    1.5427    0.6747 C.3       1 ACP         0.2693
     22 N9          0.4520    2.5240    0.1767 N.pl3     1 ACP        -0.3222
     23 C8          0.1798    2.8712   -1.2933 C.ar      1 ACP         0.1640
     24 N7         -0.7494    3.8400   -1.3610 N.2       1 ACP        -0.1640
     25 C5         -1.0173    4.0603   -0.0358 C.ar      1 ACP         0.0820
     26 C6         -2.0105    5.0717    0.4241 C.ar      1 ACP         0.1640
     27 N6         -2.6723    5.7982   -0.4628 N.pl3     1 ACP        -0.4916
     28 N1         -2.1445    5.1522    1.7502 N.pl3     1 ACP        -0.4390
     29 C2         -1.3755    4.3143    2.6426 C.ar      1 ACP         0.5691
     30 N3         -0.5075    3.4292    2.2616 N.ar      1 ACP        -0.4283
     31 C4         -0.3667    3.3425    0.9070 C.ar      1 ACP         0.2226
     32 HOG3        1.6095   -2.6051   -9.5197 H         1 ACP         0.2010
     33 H3B1        0.4841   -2.3446   -5.2180 H         1 ACP        -0.0393
     34 H3B2       -0.2800   -1.5174   -6.5783 H         1 ACP        -0.0393
     35 H5'1        1.2153   -0.0781   -2.0454 H         1 ACP        -0.0393
     36 H5'2        2.4645   -1.3454   -2.1547 H         1 ACP        -0.0393
     37 H4'         3.8046   -0.1390   -0.4011 H         1 ACP        -0.0393
     38 H3'         1.6787   -1.7627    0.2719 H         1 ACP        -0.0393
     39 HO3'        2.2231   -1.2979    2.3952 H         1 ACP         0.2010
     40 H2'         0.0002   -0.0084   -0.0014 H         1 ACP        -0.0393
     41 HO2'       -0.6132    0.5577    2.1063 H         1 ACP         0.2010
     42 H1'         1.7718    1.9211    1.6015 H         1 ACP        -0.0393
     43 H8          0.6089    2.4651   -2.2147 H         1 ACP         0.0000
     44 HN61       -2.5055    5.6680   -1.4503 H         1 ACP         0.2048
     45 HN62       -3.3462    6.4841   -0.1542 H         1 ACP         0.2048
     46 H2         -1.5932    4.4937    3.7066 H         1 ACP        -0.1292
     47 H47        -2.8098    5.8270    2.1160 H         1 ACP         0.2048
@<TRIPOS>BOND
     1    1    2 2
     2    1    3 1
     3    1    4 1
     4    1    8 1
     5    4   32 1
     6    5    6 2
     7    5    7 1
     8    5    8 1
     9    5   12 1
    10    8   33 1
    11    8   34 1
    12    9   10 2
    13    9   11 1
    14    9   12 1
    15    9   13 1
    16   13   14 1
    17   14   15 1
    18   14   35 1
    19   14   36 1
    20   15   16 1
    21   15   17 1
    22   15   37 1
    23   16   21 1
    24   17   18 1
    25   17   19 1
    26   17   38 1
    27   18   39 1
    28   19   20 1
    29   19   21 1
    30   19   40 1
    31   20   41 1
    32   21   22 1
    33   21   42 1
    34   22   23 ar
    35   22   31 ar
    36   23   24 ar
    37   23   43 1
    38   24   25 ar
    39   25   26 ar
    40   25   31 ar
    41   26   27 1
    42   26   28 ar
    43   27   44 1
    44   27   45 1
    45   28   29 ar
    46   28   47 1
    47   29   30 ar
    48   29   46 1
    49   30   31 ar
@<TRIPOS>SUBSTRUCTURE
     1 ACP         1 GROUP 0 A     ****
@<TRIPOS>MOLECULE
[[5-(6-amino-1,8-dihydropurine-6,8-diylium-7-id-9-yl)-3,4-dihydroxy-tetrahydrofuran-2-yl]methoxy-oxido-phosphoryl]oxy-[[hydroxy(oxido)phosphoryl]methyl]phosphinate
   47    49     1     0     0
SMALL
USER_CHARGES

@<TRIPOS>ATOM
      1 PG          3.1164   -5.1070   -3.6237 P.3       1 ACP        -1.2804
      2 O1G         2.3633   -6.2411   -2.9684 O.co2     1 ACP         0.3195
      3 O2G         3.8987   -4.0926   -2.8218 O.co2     1 ACP         0.3195
      4 O3G         4.0616   -5.7001   -4.8132 O.3       1 ACP         0.0326
      5 PB          2.3847   -2.6926   -5.6757 P.3       1 ACP        -1.2804
      6 O1B         1.1397   -2.2185   -6.3885 O.co2     1 ACP         0.3195
      7 O2B         3.6556   -3.0351   -6.4185 O.co2     1 ACP         0.3195
      8 C3B         1.9177   -4.1737   -4.6746 C.3       1 ACP         0.8942
      9 PA          3.0653   -0.0868   -4.4294 P.3       1 ACP        -1.1062
     10 O1A         1.8192    0.6655   -4.8430 O.co2     1 ACP         0.3195
     11 O2A         4.3755    0.1344   -5.1540 O.co2     1 ACP         0.3195
     12 O3A         2.7308   -1.6852   -4.4415 O.3       1 ACP         0.4672
     13 O5'         3.2883    0.1336   -2.8242 O.3       1 ACP         0.1618
     14 C5'         2.2816   -0.2918   -1.9206 C.3       1 ACP         0.1504
     15 C4'         2.7248    0.0226   -0.4980 C.3       1 ACP         0.1111
     16 O4'         2.4697    1.4219   -0.2462 O.3       1 ACP        -0.1436
     17 C3'         1.9404   -0.7419    0.5596 C.3       1 ACP         0.1111
     18 O3'         2.7418   -0.8086    1.7389 O.3       1 ACP        -0.2728
     19 C2'         0.7477    0.1630    0.7858 C.3       1 ACP         0.1111
     20 O2'         0.1373   -0.0577    2.0407 O.3       1 ACP        -0.2728
     21 C1'         1.3733    1.5427    0.6747 C.3       1 ACP         0.2693
     22 N9          0.4520    2.5240    0.1767 N.pl3     1 ACP        -0.3222
     23 C8          0.1798    2.8712   -1.2933 C.ar      1 ACP         0.1640
     24 N7         -0.7494    3.8400   -1.3610 N.2       1 ACP        -0.1640
     25 C5         -1.0173    4.0603   -0.0358 C.ar      1 ACP         0.0820
     26 C6         -2.0105    5.0717    0.4241 C.ar      1 ACP         0.1640
     27 N6         -2.6723    5.7982   -0.4628 N.pl3     1 ACP        -0.4916
     28 N1         -2.1445    5.1522    1.7502 N.pl3     1 ACP        -0.4390
     29 C2         -1.3755    4.3143    2.6426 C.ar      1 ACP         0.5691
     30 N3         -0.5075    3.4292    2.2616 N.ar      1 ACP        -0.4283
     31 C4         -0.3667    3.3425    0.9070 C.ar      1 ACP         0.2226
     32 HOG3        4.7511   -6.3573   -4.5790 H         1 ACP         0.2010
     33 H3B1        1.1116   -3.8546   -4.0046 H         1 ACP        -0.0393
     34 H3B2        1.4909   -4.8958   -5.3795 H         1 ACP        -0.0393
     35 H5'1        1.3500    0.2325   -2.1560 H         1 ACP        -0.0393
     36 H5'2        2.1267   -1.3683   -2.0444 H         1 ACP        -0.0393
     37 H4'         3.8046   -0.1390   -0.4011 H         1 ACP        -0.0393
     38 H3'         1.6787   -1.7627    0.2719 H         1 ACP        -0.0393
     39 HO3'        3.5553   -1.2733    1.4913 H         1 ACP         0.2010
     40 H2'         0.0002   -0.0084   -0.0014 H         1 ACP        -0.0393
     41 HO2'       -0.6132    0.5577    2.1063 H         1 ACP         0.2010
     42 H1'         1.7718    1.9211    1.6015 H         1 ACP        -0.0393
     43 H8          0.6089    2.4651   -2.2147 H         1 ACP         0.0000
     44 HN61       -2.5055    5.6680   -1.4503 H         1 ACP         0.2048
     45 HN62       -3.3462    6.4841   -0.1542 H         1 ACP         0.2048
     46 H2         -1.5932    4.4937    3.7066 H         1 ACP        -0.1292
     47 H47        -2.8098    5.8270    2.1160 H         1 ACP         0.2048
@<TRIPOS>BOND
     1    1    2 2
     2    1    3 1
     3    1    4 1
     4    1    8 1
     5    4   32 1
     6    5    6 2
     7    5    7 1
     8    5    8 1
     9    5   12 1
    10    8   33 1
    11    8   34 1
    12    9   10 2
    13    9   11 1
    14    9   12 1
    15    9   13 1
    16   13   14 1
    17   14   15 1
    18   14   35 1
    19   14   36 1
    20   15   16 1
    21   15   17 1
    22   15   37 1
    23   16   21 1
    24   17   18 1
    25   17   19 1
    26   17   38 1
    27   18   39 1
    28   19   20 1
    29   19   21 1
    30   19   40 1
    31   20   41 1
    32   21   22 1
    33   21   42 1
    34   22   23 ar
    35   22   31 ar
    36   23   24 ar
    37   23   43 1
    38   24   25 ar
    39   25   26 ar
    40   25   31 ar
    41   26   27 1
    42   26   28 ar
    43   27   44 1
    44   27   45 1
    45   28   29 ar
    46   28   47 1
    47   29   30 ar
    48   29   46 1
    49   30   31 ar
@<TRIPOS>SUBSTRUCTURE
     1 ACP         1 GROUP 0 A     ****
@<TRIPOS>MOLECULE
[[5-(6-amino-1,8-dihydropurine-6,8-diylium-7-id-9-yl)-3,4-dihydroxy-tetrahydrofuran-2-yl]methoxy-oxido-phosphoryl]oxy-[[hydroxy(oxido)phosphoryl]methyl]phosphinate
   47    49     1     0     0
SMALL
USER_CHARGES

@<TRIPOS>ATOM
      1 PG          7.4498   -1.2755   -0.6110 P.3       1 ACP        -1.2804
      2 O1G         7.7938   -1.9049    0.7188 O.co2     1 ACP         0.3195
      3 O2G         6.6227   -0.0147   -0.7133 O.co2     1 ACP         0.3195
      4 O3G         8.8086   -1.1033   -1.4965 O.3       1 ACP         0.0326
      5 PB          6.0159   -2.2560   -3.3602 P.3       1 ACP        -1.2804
      6 O1B         5.4034   -3.5429   -3.8614 O.co2     1 ACP         0.3195
      7 O2B         7.1242   -1.5488   -4.1058 O.co2     1 ACP         0.3195
      8 C3B         6.6203   -2.5647   -1.6416 C.3       1 ACP         0.8942
      9 PA          3.9534   -0.2075   -3.9573 P.3       1 ACP        -1.1062
     10 O1A         3.0635   -1.0663   -4.8291 O.co2     1 ACP         0.3195
     11 O2A         4.8781    0.8194   -4.5746 O.co2     1 ACP         0.3195
     12 O3A         4.8377   -1.1891   -2.9974 O.3       1 ACP         0.4672
     13 O5'         3.0198    0.5138   -2.8245 O.3       1 ACP         0.1618
     14 C5'         2.2816   -0.2918   -1.9206 C.3       1 ACP         0.1504
     15 C4'         2.7248    0.0226   -0.4980 C.3       1 ACP         0.1111
     16 O4'         2.4697    1.4219   -0.2462 O.3       1 ACP        -0.1436
     17 C3'         1.9404   -0.7419    0.5596 C.3       1 ACP         0.1111
     18 O3'         2.7418   -0.8086    1.7389 O.3       1 ACP        -0.2728
     19 C2'         0.7477    0.1630    0.7858 C.3       1 ACP         0.1111
     20 O2'         0.1373   -0.0577    2.0407 O.3       1 ACP        -0.2728
     21 C1'         1.3733    1.5427    0.6747 C.3       1 ACP         0.2693
     22 N9          0.4520    2.5240    0.1767 N.pl3     1 ACP        -0.3222
     23 C8          0.1798    2.8712   -1.2933 C.ar      1 ACP         0.1640
     24 N7         -0.7494    3.8400   -1.3610 N.2       1 ACP        -0.1640
     25 C5         -1.0173    4.0603   -0.0358 C.ar      1 ACP         0.0820
     26 C6         -2.0105    5.0717    0.4241 C.ar      1 ACP         0.1640
     27 N6         -2.6723    5.7982   -0.4628 N.pl3     1 ACP        -0.4916
     28 N1         -2.1445    5.1522    1.7502 N.pl3     1 ACP        -0.4390
     29 C2         -1.3755    4.3143    2.6426 C.ar      1 ACP         0.5691
     30 N3         -0.5075    3.4292    2.2616 N.ar      1 ACP        -0.4283
     31 C4         -0.3667    3.3425    0.9070 C.ar      1 ACP         0.2226
     32 HOG3        9.5343   -0.5500   -1.1369 H         1 ACP         0.2010
     33 H3B1        5.7535   -2.9036   -1.0634 H         1 ACP        -0.0393
     34 H3B2        7.3176   -3.4070   -1.7105 H         1 ACP        -0.0393
     35 H5'1        1.2153   -0.0781   -2.0454 H         1 ACP        -0.0393
     36 H5'2        2.4645   -1.3454   -2.1547 H         1 ACP        -0.0393
     37 H4'         3.8046   -0.1390   -0.4011 H         1 ACP        -0.0393
     38 H3'         1.6787   -1.7627    0.2719 H         1 ACP        -0.0393
     39 HO3'        2.2231   -1.2979    2.3952 H         1 ACP         0.2010
     40 H2'         0.0002   -0.0084   -0.0014 H         1 ACP        -0.0393
     41 HO2'       -0.6132    0.5577    2.1063 H         1 ACP         0.2010
     42 H1'         1.7718    1.9211    1.6015 H         1 ACP        -0.0393
     43 H8          0.6089    2.4651   -2.2147 H         1 ACP         0.0000
     44 HN61       -2.5055    5.6680   -1.4503 H         1 ACP         0.2048
     45 HN62       -3.3462    6.4841   -0.1542 H         1 ACP         0.2048
     46 H2         -1.5932    4.4937    3.7066 H         1 ACP        -0.1292
     47 H47        -2.8098    5.8270    2.1160 H         1 ACP         0.2048
@<TRIPOS>BOND
     1    1    2 2
     2    1    3 1
     3    1    4 1
     4    1    8 1
     5    4   32 1
     6    5    6 2
     7    5    7 1
     8    5    8 1
     9    5   12 1
    10    8   33 1
    11    8   34 1
    12    9   10 2
    13    9   11 1
    14    9   12 1
    15    9   13 1
    16   13   14 1
    17   14   15 1
    18   14   35 1
    19   14   36 1
    20   15   16 1
    21   15   17 1
    22   15   37 1
    23   16   21 1
    24   17   18 1
    25   17   19 1
    26   17   38 1
    27   18   39 1
    28   19   20 1
    29   19   21 1
    30   19   40 1
    31   20   41 1
    32   21   22 1
    33   21   42 1
    34   22   23 ar
    35   22   31 ar
    36   23   24 ar
    37   23   43 1
    38   24   25 ar
    39   25   26 ar
    40   25   31 ar
    41   26   27 1
    42   26   28 ar
    43   27   44 1
    44   27   45 1
    45   28   29 ar
    46   28   47 1
    47   29   30 ar
    48   29   46 1
    49   30   31 ar
@<TRIPOS>SUBSTRUCTURE
     1 ACP         1 GROUP 0 A     ****
@<TRIPOS>MOLECULE
[[5-(6-amino-1,8-dihydropurine-6,8-diylium-7-id-9-yl)-3,4-dihydroxy-tetrahydrofuran-2-yl]methoxy-oxido-phosphoryl]oxy-[[hydroxy(oxido)phosphoryl]methyl]phosphinate
   47    49     1     0     0
SMALL
USER_CHARGES

@<TRIPOS>ATOM
      1 PG          7.5093   -1.1511   -2.7925 P.3       1 ACP        -1.2804
      2 O1G         6.4336   -1.1394   -1.7316 O.co2     1 ACP         0.3195
      3 O2G         8.8220   -0.4237   -2.6138 O.co2     1 ACP         0.3195
      4 O3G         7.8020   -2.6888   -3.2504 O.3       1 ACP         0.0326
      5 PB          5.3244   -1.3769   -5.1905 P.3       1 ACP        -1.2804
      6 O1B         5.7568   -2.7849   -5.5268 O.co2     1 ACP         0.3195
      7 O2B         4.7951   -0.4259   -6.2392 O.co2     1 ACP         0.3195
      8 C3B         6.7513   -0.5436   -4.3636 C.3       1 ACP         0.8942
      9 PA          2.8591   -2.1299   -3.7201 P.3       1 ACP        -1.1062
     10 O1A         3.0727   -3.6280   -3.7234 O.co2     1 ACP         0.3195
     11 O2A         1.8686   -1.4903   -4.6689 O.co2     1 ACP         0.3195
     12 O3A         4.3077   -1.4018   -3.9162 O.3       1 ACP         0.4672
     13 O5'         2.5237   -1.6631   -2.1889 O.3       1 ACP         0.1618
     14 C5'         2.2816   -0.2918   -1.9206 C.3       1 ACP         0.1504
     15 C4'         2.7248    0.0226   -0.4980 C.3       1 ACP         0.1111
     16 O4'         2.4697    1.4219   -0.2462 O.3       1 ACP        -0.1436
     17 C3'         1.9404   -0.7419    0.5596 C.3       1 ACP         0.1111
     18 O3'         2.7418   -0.8086    1.7389 O.3       1 ACP        -0.2728
     19 C2'         0.7477    0.1630    0.7858 C.3       1 ACP         0.1111
     20 O2'         0.1373   -0.0577    2.0407 O.3       1 ACP        -0.2728
     21 C1'         1.3733    1.5427    0.6747 C.3       1 ACP         0.2693
     22 N9          0.4520    2.5240    0.1767 N.pl3     1 ACP        -0.3222
     23 C8          0.1798    2.8712   -1.2933 C.ar      1 ACP         0.1640
     24 N7         -0.7494    3.8400   -1.3610 N.2       1 ACP        -0.1640
     25 C5         -1.0173    4.0603   -0.0358 C.ar      1 ACP         0.0820
     26 C6         -2.0105    5.0717    0.4241 C.ar      1 ACP         0.1640
     27 N6         -2.6723    5.7982   -0.4628 N.pl3     1 ACP        -0.4916
     28 N1         -2.1445    5.1522    1.7502 N.pl3     1 ACP        -0.4390
     29 C2         -1.3755    4.3143    2.6426 C.ar      1 ACP         0.5691
     30 N3         -0.5075    3.4292    2.2616 N.ar      1 ACP        -0.4283
     31 C4         -0.3667    3.3425    0.9070 C.ar      1 ACP         0.2226
     32 HOG3        8.1101   -3.3280   -2.5731 H         1 ACP         0.2010
     33 H3B1        7.5625   -0.5129   -5.0996 H         1 ACP        -0.0393
     34 H3B2        6.4363    0.4896   -4.1803 H         1 ACP        -0.0393
     35 H5'1        2.8429    0.3140   -2.6391 H         1 ACP        -0.0393
     36 H5'2        1.2125   -0.0906   -2.0420 H         1 ACP        -0.0393
     37 H4'         3.8046   -0.1390   -0.4011 H         1 ACP        -0.0393
     38 H3'         1.6787   -1.7627    0.2719 H         1 ACP        -0.0393
     39 HO3'        3.5553   -1.2733    1.4913 H         1 ACP         0.2010
     40 H2'         0.0002   -0.0084   -0.0014 H         1 ACP        -0.0393
     41 HO2'       -0.6132    0.5577    2.1063 H         1 ACP         0.2010
     42 H1'         1.7718    1.9211    1.6015 H         1 ACP        -0.0393
     43 H8          0.6089    2.4651   -2.2147 H         1 ACP         0.0000
     44 HN61       -2.5055    5.6680   -1.4503 H         1 ACP         0.2048
     45 HN62       -3.3462    6.4841   -0.1542 H         1 ACP         0.2048
     46 H2         -1.5932    4.4937    3.7066 H         1 ACP        -0.1292
     47 H47        -2.8098    5.8270    2.1160 H         1 ACP         0.2048
@<TRIPOS>BOND
     1    1    2 2
     2    1    3 1
     3    1    4 1
     4    1    8 1
     5    4   32 1
     6    5    6 2
     7    5    7 1
     8    5    8 1
     9    5   12 1
    10    8   33 1
    11    8   34 1
    12    9   10 2
    13    9   11 1
    14    9   12 1
    15    9   13 1
    16   13   14 1
    17   14   15 1
    18   14   35 1
    19   14   36 1
    20   15   16 1
    21   15   17 1
    22   15   37 1
    23   16   21 1
    24   17   18 1
    25   17   19 1
    26   17   38 1
    27   18   39 1
    28   19   20 1
    29   19   21 1
    30   19   40 1
    31   20   41 1
    32   21   22 1
    33   21   42 1
    34   22   23 ar
    35   22   31 ar
    36   23   24 ar
    37   23   43 1
    38   24   25 ar
    39   25   26 ar
    40   25   31 ar
    41   26   27 1
    42   26   28 ar
    43   27   44 1
    44   27   45 1
    45   28   29 ar
    46   28   47 1
    47   29   30 ar
    48   29   46 1
    49   30   31 ar
@<TRIPOS>SUBSTRUCTURE
     1 ACP         1 GROUP 0 A     ****
@<TRIPOS>MOLECULE
[[5-(6-amino-1,8-dihydropurine-6,8-diylium-7-id-9-yl)-3,4-dihydroxy-tetrahydrofuran-2-yl]methoxy-oxido-phosphoryl]oxy-[[hydroxy(oxido)phosphoryl]methyl]phosphinate
   47    49     1     0     0
SMALL
USER_CHARGES

@<TRIPOS>ATOM
      1 PG         -0.9454    1.7601   -5.6894 P.3       1 ACP        -1.2804
      2 O1G        -2.4533    1.8332   -5.6298 O.co2     1 ACP         0.3195
      3 O2G        -0.1277    2.7088   -6.5352 O.co2     1 ACP         0.3195
      4 O3G        -0.3439    1.7327   -4.1737 O.3       1 ACP         0.0326
      5 PB          1.2580   -0.5250   -6.3956 P.3       1 ACP        -1.2804
      6 O1B         1.8885    0.3351   -7.4658 O.co2     1 ACP         0.3195
      7 O2B         1.2331   -2.0334   -6.4871 O.co2     1 ACP         0.3195
      8 C3B        -0.4886    0.0416   -6.1897 C.3       1 ACP         0.8942
      9 PA          3.3324   -0.0529   -4.3266 P.3       1 ACP        -1.1062
     10 O1A         4.1264    0.9964   -5.0738 O.co2     1 ACP         0.3195
     11 O2A         3.8347   -1.4774   -4.2320 O.co2     1 ACP         0.3195
     12 O3A         1.8151   -0.0782   -4.9299 O.3       1 ACP         0.4672
     13 O5'         3.0198    0.5138   -2.8245 O.3       1 ACP         0.1618
     14 C5'         2.2816   -0.2918   -1.9206 C.3       1 ACP         0.1504
     15 C4'         2.7248    0.0226   -0.4980 C.3       1 ACP         0.1111
     16 O4'         2.4697    1.4219   -0.2462 O.3       1 ACP        -0.1436
     17 C3'         1.9404   -0.7419    0.5596 C.3       1 ACP         0.1111
     18 O3'         2.7418   -0.8086    1.7389 O.3       1 ACP        -0.2728
     19 C2'         0.7477    0.1630    0.7858 C.3       1 ACP         0.1111
     20 O2'         0.1373   -0.0577    2.0407 O.3       1 ACP        -0.2728
     21 C1'         1.3733    1.5427    0.6747 C.3       1 ACP         0.2693
     22 N9          0.4520    2.5240    0.1767 N.pl3     1 ACP        -0.3222
     23 C8          0.5793    3.3338   -1.1209 C.ar      1 ACP         0.1640
     24 N7         -0.4807    4.1508   -1.2458 N.2       1 ACP        -0.1640
     25 C5         -1.1921    3.8572   -0.1126 C.ar      1 ACP         0.0820
     26 C6         -2.4855    4.5203    0.2163 C.ar      1 ACP         0.1640
     27 N6         -2.9873    5.4319   -0.6020 N.pl3     1 ACP        -0.4916
     28 N1         -3.0414    4.1119    1.3596 N.pl3     1 ACP        -0.4390
     29 C2         -2.4169    3.1071    2.1904 C.ar      1 ACP         0.5691
     30 N3         -1.2928    2.5191    1.9210 N.ar      1 ACP        -0.4283
     31 C4         -0.7202    2.9326    0.7534 C.ar      1 ACP         0.2226
     32 HOG3       -0.5354    2.4903   -3.5807 H         1 ACP         0.2010
     33 H3B1       -0.9889   -0.1384   -7.1477 H         1 ACP        -0.0393
     34 H3B2       -0.9419   -0.6302   -5.4523 H         1 ACP        -0.0393
     35 H5'1        1.2153   -0.0781   -2.0454 H         1 ACP        -0.0393
     36 H5'2        2.4645   -1.3454   -2.1547 H         1 ACP        -0.0393
     37 H4'         3.8046   -0.1390   -0.4011 H         1 ACP        -0.0393
     38 H3'         1.6787   -1.7627    0.2719 H         1 ACP        -0.0393
     39 HO3'        2.2231   -1.2979    2.3952 H         1 ACP         0.2010
     40 H2'         0.0002   -0.0084   -0.0014 H         1 ACP        -0.0393
     41 HO2'       -0.1554   -0.9852    2.0577 H         1 ACP         0.2010
     42 H1'         1.7718    1.9211    1.6015 H         1 ACP        -0.0393
     43 H8          1.3565    3.3309   -1.8916 H         1 ACP         0.0000
     44 HN61       -2.4952    5.6785   -1.4487 H         1 ACP         0.2048
     45 HN62       -3.8637    5.8828   -0.3819 H         1 ACP         0.2048
     46 H2         -2.9911    2.8734    3.1000 H         1 ACP        -0.1292
     47 H47        -3.9253    4.5332    1.6302 H         1 ACP         0.2048
@<TRIPOS>BOND
     1    1    2 2
     2    1    3 1
     3    1    4 1
     4    1    8 1
     5    4   32 1
     6    5    6 2
     7    5    7 1
     8    5    8 1
     9    5   12 1
    10    8   33 1
    11    8   34 1
    12    9   10 2
    13    9   11 1
    14    9   12 1
    15    9   13 1
    16   13   14 1
    17   14   15 1
    18   14   35 1
    19   14   36 1
    20   15   16 1
    21   15   17 1
    22   15   37 1
    23   16   21 1
    24   17   18 1
    25   17   19 1
    26   17   38 1
    27   18   39 1
    28   19   20 1
    29   19   21 1
    30   19   40 1
    31   20   41 1
    32   21   22 1
    33   21   42 1
    34   22   23 ar
    35   22   31 ar
    36   23   24 ar
    37   23   43 1
    38   24   25 ar
    39   25   26 ar
    40   25   31 ar
    41   26   27 1
    42   26   28 ar
    43   27   44 1
    44   27   45 1
    45   28   29 ar
    46   28   47 1
    47   29   30 ar
    48   29   46 1
    49   30   31 ar
@<TRIPOS>SUBSTRUCTURE
     1 ACP         1 GROUP 0 A     ****
@<TRIPOS>MOLECULE
[[5-(6-amino-1,8-dihydropurine-6,8-diylium-7-id-9-yl)-3,4-dihydroxy-tetrahydrofuran-2-yl]methoxy-oxido-phosphoryl]oxy-[[hydroxy(oxido)phosphoryl]methyl]phosphinate
   47    49     1     0     0
SMALL
USER_CHARGES

@<TRIPOS>ATOM
      1 PG          3.4777   -4.3859   -3.9499 P.3       1 ACP        -1.2804
      2 O1G         4.3356   -5.5854   -3.6212 O.co2     1 ACP         0.3195
      3 O2G         2.0128   -4.5170   -4.2982 O.co2     1 ACP         0.3195
      4 O3G         3.6574   -3.2562   -2.7875 O.3       1 ACP         0.0326
      5 PB          3.6071   -1.9329   -6.0810 P.3       1 ACP        -1.2804
      6 O1B         2.2415   -2.2678   -6.6338 O.co2     1 ACP         0.3195
      7 O2B         4.6943   -1.3247   -6.9368 O.co2     1 ACP         0.3195
      8 C3B         4.2949   -3.4771   -5.3350 C.3       1 ACP         0.8942
      9 PA          2.7389    0.3751   -4.4298 P.3       1 ACP        -1.1062
     10 O1A         1.2481    0.2227   -4.6393 O.co2     1 ACP         0.3195
     11 O2A         3.5164    1.4419   -5.1701 O.co2     1 ACP         0.3195
     12 O3A         3.4492   -1.0690   -4.7073 O.3       1 ACP         0.4672
     13 O5'         3.0198    0.5138   -2.8245 O.3       1 ACP         0.1618
     14 C5'         2.2816   -0.2918   -1.9206 C.3       1 ACP         0.1504
     15 C4'         2.7248    0.0226   -0.4980 C.3       1 ACP         0.1111
     16 O4'         2.4697    1.4219   -0.2462 O.3       1 ACP        -0.1436
     17 C3'         1.9404   -0.7419    0.5596 C.3       1 ACP         0.1111
     18 O3'         2.7418   -0.8086    1.7389 O.3       1 ACP        -0.2728
     19 C2'         0.7477    0.1630    0.7858 C.3       1 ACP         0.1111
     20 O2'         0.1373   -0.0577    2.0407 O.3       1 ACP        -0.2728
     21 C1'         1.3733    1.5427    0.6747 C.3       1 ACP         0.2693
     22 N9          0.4520    2.5240    0.1767 N.pl3     1 ACP        -0.3222
     23 C8          0.1798    2.8712   -1.2933 C.ar      1 ACP         0.1640
     24 N7         -0.7494    3.8400   -1.3610 N.2       1 ACP        -0.1640
     25 C5         -1.0173    4.0603   -0.0358 C.ar      1 ACP         0.0820
     26 C6         -2.0105    5.0717    0.4241 C.ar      1 ACP         0.1640
     27 N6         -2.6723    5.7982   -0.4628 N.pl3     1 ACP        -0.4916
     28 N1         -2.1445    5.1522    1.7502 N.pl3     1 ACP        -0.4390
     29 C2         -1.3755    4.3143    2.6426 C.ar      1 ACP         0.5691
     30 N3         -0.5075    3.4292    2.2616 N.ar      1 ACP        -0.4283
     31 C4         -0.3667    3.3425    0.9070 C.ar      1 ACP         0.2226
     32 HOG3        3.4179   -3.4912   -1.8658 H         1 ACP         0.2010
     33 H3B1        4.3966   -4.1990   -6.1530 H         1 ACP        -0.0393
     34 H3B2        5.3048   -3.2263   -4.9922 H         1 ACP        -0.0393
     35 H5'1        1.2153   -0.0781   -2.0454 H         1 ACP        -0.0393
     36 H5'2        2.4645   -1.3454   -2.1547 H         1 ACP        -0.0393
     37 H4'         3.8046   -0.1390   -0.4011 H         1 ACP        -0.0393
     38 H3'         1.6787   -1.7627    0.2719 H         1 ACP        -0.0393
     39 HO3'        2.2231   -1.2979    2.3952 H         1 ACP         0.2010
     40 H2'         0.0002   -0.0084   -0.0014 H         1 ACP        -0.0393
     41 HO2'       -0.1554   -0.9852    2.0577 H         1 ACP         0.2010
     42 H1'         1.7718    1.9211    1.6015 H         1 ACP        -0.0393
     43 H8          0.6089    2.4651   -2.2147 H         1 ACP         0.0000
     44 HN61       -2.5055    5.6680   -1.4503 H         1 ACP         0.2048
     45 HN62       -3.3462    6.4841   -0.1542 H         1 ACP         0.2048
     46 H2         -1.5932    4.4937    3.7066 H         1 ACP        -0.1292
     47 H47        -2.8098    5.8270    2.1160 H         1 ACP         0.2048
@<TRIPOS>BOND
     1    1    2 2
     2    1    3 1
     3    1    4 1
     4    1    8 1
     5    4   32 1
     6    5    6 2
     7    5    7 1
     8    5    8 1
     9    5   12 1
    10    8   33 1
    11    8   34 1
    12    9   10 2
    13    9   11 1
    14    9   12 1
    15    9   13 1
    16   13   14 1
    17   14   15 1
    18   14   35 1
    19   14   36 1
    20   15   16 1
    21   15   17 1
    22   15   37 1
    23   16   21 1
    24   17   18 1
    25   17   19 1
    26   17   38 1
    27   18   39 1
    28   19   20 1
    29   19   21 1
    30   19   40 1
    31   20   41 1
    32   21   22 1
    33   21   42 1
    34   22   23 ar
    35   22   31 ar
    36   23   24 ar
    37   23   43 1
    38   24   25 ar
    39   25   26 ar
    40   25   31 ar
    41   26   27 1
    42   26   28 ar
    43   27   44 1
    44   27   45 1
    45   28   29 ar
    46   28   47 1
    47   29   30 ar
    48   29   46 1
    49   30   31 ar
@<TRIPOS>SUBSTRUCTURE
     1 ACP         1 GROUP 0 A     ****
@<TRIPOS>MOLECULE
[[5-(6-amino-1,8-dihydropurine-6,8-diylium-7-id-9-yl)-3,4-dihydroxy-tetrahydrofuran-2-yl]methoxy-oxido-phosphoryl]oxy-[[hydroxy(oxido)phosphoryl]methyl]phosphinate
   47    49     1     0     0
SMALL
USER_CHARGES

@<TRIPOS>ATOM
      1 PG         -0.3177   -2.0780   -6.0238 P.3       1 ACP        -1.2804
      2 O1G        -1.6086   -2.8262   -5.7860 O.co2     1 ACP         0.3195
      3 O2G         0.9653   -2.4432   -5.3135 O.co2     1 ACP         0.3195
      4 O3G        -0.0375   -1.9771   -7.6273 O.3       1 ACP         0.0326
      5 PB          0.6524    1.0215   -5.8571 P.3       1 ACP        -1.2804
      6 O1B         0.0043    2.3406   -5.5070 O.co2     1 ACP         0.3195
      7 O2B         1.3577    0.7965   -7.1748 O.co2     1 ACP         0.3195
      8 C3B        -0.6402   -0.2890   -5.6954 C.3       1 ACP         0.8942
      9 PA          2.9215    1.2532   -3.9587 P.3       1 ACP        -1.1062
     10 O1A         2.4657    2.5119   -3.2532 O.co2     1 ACP         0.3195
     11 O2A         4.0280    1.3050   -4.9899 O.co2     1 ACP         0.3195
     12 O3A         1.6174    0.5395   -4.6346 O.3       1 ACP         0.4672
     13 O5'         3.2883    0.1336   -2.8242 O.3       1 ACP         0.1618
     14 C5'         2.2816   -0.2918   -1.9206 C.3       1 ACP         0.1504
     15 C4'         2.7248    0.0226   -0.4980 C.3       1 ACP         0.1111
     16 O4'         2.4697    1.4219   -0.2462 O.3       1 ACP        -0.1436
     17 C3'         1.9404   -0.7419    0.5596 C.3       1 ACP         0.1111
     18 O3'         2.7418   -0.8086    1.7389 O.3       1 ACP        -0.2728
     19 C2'         0.7477    0.1630    0.7858 C.3       1 ACP         0.1111
     20 O2'         0.1373   -0.0577    2.0407 O.3       1 ACP        -0.2728
     21 C1'         1.3733    1.5427    0.6747 C.3       1 ACP         0.2693
     22 N9          0.4520    2.5240    0.1767 N.pl3     1 ACP        -0.3222
     23 C8         -0.3054    2.4845   -1.1576 C.ar      1 ACP         0.1640
     24 N7         -1.0755    3.5806   -1.2691 N.2       1 ACP        -0.1640
     25 C5         -0.8043    4.2306   -0.0942 C.ar      1 ACP         0.0820
     26 C6         -1.4324    5.5335    0.2646 C.ar      1 ACP         0.1640
     27 N6         -2.2885    6.1055   -0.5675 N.pl3     1 ACP        -0.4916
     28 N1         -1.0537    6.0229    1.4478 N.pl3     1 ACP        -0.4390
     29 C2         -0.1096    5.3242    2.2908 C.ar      1 ACP         0.5691
     30 N3          0.4468    4.1904    1.9960 N.ar      1 ACP        -0.4283
     31 C4          0.0631    3.6855    0.7877 C.ar      1 ACP         0.2226
     32 HOG3        0.0563   -2.8087   -8.1390 H         1 ACP         0.2010
     33 H3B1       -1.0137   -0.2321   -4.6669 H         1 ACP        -0.0393
     34 H3B2       -1.4601    0.0083   -6.3585 H         1 ACP        -0.0393
     35 H5'1        1.3500    0.2325   -2.1560 H         1 ACP        -0.0393
     36 H5'2        2.1267   -1.3683   -2.0444 H         1 ACP        -0.0393
     37 H4'         3.8046   -0.1390   -0.4011 H         1 ACP        -0.0393
     38 H3'         1.6787   -1.7627    0.2719 H         1 ACP        -0.0393
     39 HO3'        2.2231   -1.2979    2.3952 H         1 ACP         0.2010
     40 H2'         0.0002   -0.0084   -0.0014 H         1 ACP        -0.0393
     41 HO2'       -0.6132    0.5577    2.1063 H         1 ACP         0.2010
     42 H1'         1.7718    1.9211    1.6015 H         1 ACP        -0.0393
     43 H8         -0.2991    1.7413   -1.9611 H         1 ACP         0.0000
     44 HN61       -2.5167    5.6603   -1.4447 H         1 ACP         0.2048
     45 HN62       -2.7159    6.9882   -0.3270 H         1 ACP         0.2048
     46 H2          0.1059    5.8491    3.2340 H         1 ACP        -0.1292
     47 H47        -1.4532    6.9099    1.7401 H         1 ACP         0.2048
@<TRIPOS>BOND
     1    1    2 2
     2    1    3 1
     3    1    4 1
     4    1    8 1
     5    4   32 1
     6    5    6 2
     7    5    7 1
     8    5    8 1
     9    5   12 1
    10    8   33 1
    11    8   34 1
    12    9   10 2
    13    9   11 1
    14    9   12 1
    15    9   13 1
    16   13   14 1
    17   14   15 1
    18   14   35 1
    19   14   36 1
    20   15   16 1
    21   15   17 1
    22   15   37 1
    23   16   21 1
    24   17   18 1
    25   17   19 1
    26   17   38 1
    27   18   39 1
    28   19   20 1
    29   19   21 1
    30   19   40 1
    31   20   41 1
    32   21   22 1
    33   21   42 1
    34   22   23 ar
    35   22   31 ar
    36   23   24 ar
    37   23   43 1
    38   24   25 ar
    39   25   26 ar
    40   25   31 ar
    41   26   27 1
    42   26   28 ar
    43   27   44 1
    44   27   45 1
    45   28   29 ar
    46   28   47 1
    47   29   30 ar
    48   29   46 1
    49   30   31 ar
@<TRIPOS>SUBSTRUCTURE
     1 ACP         1 GROUP 0 A     ****
@<TRIPOS>MOLECULE
[[5-(6-amino-1,8-dihydropurine-6,8-diylium-7-id-9-yl)-3,4-dihydroxy-tetrahydrofuran-2-yl]methoxy-oxido-phosphoryl]oxy-[[hydroxy(oxido)phosphoryl]methyl]phosphinate
   47    49     1     0     0
SMALL
USER_CHARGES

@<TRIPOS>ATOM
      1 PG          2.1683   -4.2301   -4.3190 P.3       1 ACP        -1.2804
      2 O1G         2.1247   -5.6511   -4.8304 O.co2     1 ACP         0.3195
      3 O2G         0.9824   -3.5834   -3.6410 O.co2     1 ACP         0.3195
      4 O3G         3.4960   -4.0277   -3.3937 O.3       1 ACP         0.0326
      5 PB          2.8430   -1.3106   -5.5828 P.3       1 ACP        -1.2804
      6 O1B         1.5054   -0.7543   -5.1539 O.co2     1 ACP         0.3195
      7 O2B         3.5525   -0.8295   -6.8275 O.co2     1 ACP         0.3195
      8 C3B         2.6573   -3.1431   -5.7303 C.3       1 ACP         0.8942
      9 PA          4.4357   -0.0473   -3.4208 P.3       1 ACP        -1.1062
     10 O1A         5.0077    1.0009   -4.3502 O.co2     1 ACP         0.3195
     11 O2A         5.2684   -0.6124   -2.2904 O.co2     1 ACP         0.3195
     12 O3A         3.8786   -1.2888   -4.3238 O.3       1 ACP         0.4672
     13 O5'         3.0198    0.5138   -2.8245 O.3       1 ACP         0.1618
     14 C5'         2.2816   -0.2918   -1.9206 C.3       1 ACP         0.1504
     15 C4'         2.7248    0.0226   -0.4980 C.3       1 ACP         0.1111
     16 O4'         2.4697    1.4219   -0.2462 O.3       1 ACP        -0.1436
     17 C3'         1.9404   -0.7419    0.5596 C.3       1 ACP         0.1111
     18 O3'         2.7418   -0.8086    1.7389 O.3       1 ACP        -0.2728
     19 C2'         0.7477    0.1630    0.7858 C.3       1 ACP         0.1111
     20 O2'         0.1373   -0.0577    2.0407 O.3       1 ACP        -0.2728
     21 C1'         1.3733    1.5427    0.6747 C.3       1 ACP         0.2693
     22 N9          0.4520    2.5240    0.1767 N.pl3     1 ACP        -0.3222
     23 C8          0.1798    2.8712   -1.2933 C.ar      1 ACP         0.1640
     24 N7         -0.7494    3.8400   -1.3610 N.2       1 ACP        -0.1640
     25 C5         -1.0173    4.0603   -0.0358 C.ar      1 ACP         0.0820
     26 C6         -2.0105    5.0717    0.4241 C.ar      1 ACP         0.1640
     27 N6         -2.6723    5.7982   -0.4628 N.pl3     1 ACP        -0.4916
     28 N1         -2.1445    5.1522    1.7502 N.pl3     1 ACP        -0.4390
     29 C2         -1.3755    4.3143    2.6426 C.ar      1 ACP         0.5691
     30 N3         -0.5075    3.4292    2.2616 N.ar      1 ACP        -0.4283
     31 C4         -0.3667    3.3425    0.9070 C.ar      1 ACP         0.2226
     32 HOG3        3.5980   -4.5858   -2.5936 H         1 ACP         0.2010
     33 H3B1        1.9168   -3.3181   -6.5186 H         1 ACP        -0.0393
     34 H3B2        3.6196   -3.5184   -6.0958 H         1 ACP        -0.0393
     35 H5'1        1.2153   -0.0781   -2.0454 H         1 ACP        -0.0393
     36 H5'2        2.4645   -1.3454   -2.1547 H         1 ACP        -0.0393
     37 H4'         3.8046   -0.1390   -0.4011 H         1 ACP        -0.0393
     38 H3'         1.6787   -1.7627    0.2719 H         1 ACP        -0.0393
     39 HO3'        2.2231   -1.2979    2.3952 H         1 ACP         0.2010
     40 H2'         0.0002   -0.0084   -0.0014 H         1 ACP        -0.0393
     41 HO2'       -0.6132    0.5577    2.1063 H         1 ACP         0.2010
     42 H1'         1.7718    1.9211    1.6015 H         1 ACP        -0.0393
     43 H8          0.6089    2.4651   -2.2147 H         1 ACP         0.0000
     44 HN61       -2.5055    5.6680   -1.4503 H         1 ACP         0.2048
     45 HN62       -3.3462    6.4841   -0.1542 H         1 ACP         0.2048
     46 H2         -1.5932    4.4937    3.7066 H         1 ACP        -0.1292
     47 H47        -2.8098    5.8270    2.1160 H         1 ACP         0.2048
@<TRIPOS>BOND
     1    1    2 2
     2    1    3 1
     3    1    4 1
     4    1    8 1
     5    4   32 1
     6    5    6 2
     7    5    7 1
     8    5    8 1
     9    5   12 1
    10    8   33 1
    11    8   34 1
    12    9   10 2
    13    9   11 1
    14    9   12 1
    15    9   13 1
    16   13   14 1
    17   14   15 1
    18   14   35 1
    19   14   36 1
    20   15   16 1
    21   15   17 1
    22   15   37 1
    23   16   21 1
    24   17   18 1
    25   17   19 1
    26   17   38 1
    27   18   39 1
    28   19   20 1
    29   19   21 1
    30   19   40 1
    31   20   41 1
    32   21   22 1
    33   21   42 1
    34   22   23 ar
    35   22   31 ar
    36   23   24 ar
    37   23   43 1
    38   24   25 ar
    39   25   26 ar
    40   25   31 ar
    41   26   27 1
    42   26   28 ar
    43   27   44 1
    44   27   45 1
    45   28   29 ar
    46   28   47 1
    47   29   30 ar
    48   29   46 1
    49   30   31 ar
@<TRIPOS>SUBSTRUCTURE
     1 ACP         1 GROUP 0 A     ****
@<TRIPOS>MOLECULE
[[5-(6-amino-1,8-dihydropurine-6,8-diylium-7-id-9-yl)-3,4-dihydroxy-tetrahydrofuran-2-yl]methoxy-oxido-phosphoryl]oxy-[[hydroxy(oxido)phosphoryl]methyl]phosphinate
   47    49     1     0     0
SMALL
USER_CHARGES

@<TRIPOS>ATOM
      1 PG         -1.3216   -0.4318   -4.7967 P.3       1 ACP        -1.2804
      2 O1G        -0.5856   -1.7155   -4.4917 O.co2     1 ACP         0.3195
      3 O2G        -2.7035   -0.4238   -5.4087 O.co2     1 ACP         0.3195
      4 O3G        -1.3101    0.5262   -3.4768 O.3       1 ACP         0.0326
      5 PB          1.4479    1.1717   -5.3743 P.3       1 ACP        -1.2804
      6 O1B         1.2787    2.0218   -4.1368 O.co2     1 ACP         0.3195
      7 O2B         2.1387    1.6871   -6.6159 O.co2     1 ACP         0.3195
      8 C3B        -0.2321    0.5930   -5.8807 C.3       1 ACP         0.8942
      9 PA          3.4821   -0.6660   -4.2377 P.3       1 ACP        -1.1062
     10 O1A         4.6119   -0.0112   -5.0023 O.co2     1 ACP         0.3195
     11 O2A         3.4912   -2.1564   -3.9749 O.co2     1 ACP         0.3195
     12 O3A         2.0730   -0.2777   -4.9662 O.3       1 ACP         0.4672
     13 O5'         3.2883    0.1336   -2.8242 O.3       1 ACP         0.1618
     14 C5'         2.2816   -0.2918   -1.9206 C.3       1 ACP         0.1504
     15 C4'         2.7248    0.0226   -0.4980 C.3       1 ACP         0.1111
     16 O4'         2.4697    1.4219   -0.2462 O.3       1 ACP        -0.1436
     17 C3'         1.9404   -0.7419    0.5596 C.3       1 ACP         0.1111
     18 O3'         2.7418   -0.8086    1.7389 O.3       1 ACP        -0.2728
     19 C2'         0.7477    0.1630    0.7858 C.3       1 ACP         0.1111
     20 O2'         0.1373   -0.0577    2.0407 O.3       1 ACP        -0.2728
     21 C1'         1.3733    1.5427    0.6747 C.3       1 ACP         0.2693
     22 N9          0.4520    2.5240    0.1767 N.pl3     1 ACP        -0.3222
     23 C8          0.5793    3.3338   -1.1209 C.ar      1 ACP         0.1640
     24 N7         -0.4807    4.1508   -1.2458 N.2       1 ACP        -0.1640
     25 C5         -1.1921    3.8572   -0.1126 C.ar      1 ACP         0.0820
     26 C6         -2.4855    4.5203    0.2163 C.ar      1 ACP         0.1640
     27 N6         -2.9873    5.4319   -0.6020 N.pl3     1 ACP        -0.4916
     28 N1         -3.0414    4.1119    1.3596 N.pl3     1 ACP        -0.4390
     29 C2         -2.4169    3.1071    2.1904 C.ar      1 ACP         0.5691
     30 N3         -1.2928    2.5191    1.9210 N.ar      1 ACP        -0.4283
     31 C4         -0.7202    2.9326    0.7534 C.ar      1 ACP         0.2226
     32 HOG3       -1.7213    0.1908   -2.6518 H         1 ACP         0.2010
     33 H3B1       -0.8089    1.4911   -6.1281 H         1 ACP        -0.0393
     34 H3B2       -0.0927    0.0275   -6.8087 H         1 ACP        -0.0393
     35 H5'1        1.3500    0.2325   -2.1560 H         1 ACP        -0.0393
     36 H5'2        2.1267   -1.3683   -2.0444 H         1 ACP        -0.0393
     37 H4'         3.8046   -0.1390   -0.4011 H         1 ACP        -0.0393
     38 H3'         1.6787   -1.7627    0.2719 H         1 ACP        -0.0393
     39 HO3'        2.2231   -1.2979    2.3952 H         1 ACP         0.2010
     40 H2'         0.0002   -0.0084   -0.0014 H         1 ACP        -0.0393
     41 HO2'       -0.1554   -0.9852    2.0577 H         1 ACP         0.2010
     42 H1'         1.7718    1.9211    1.6015 H         1 ACP        -0.0393
     43 H8          1.3565    3.3309   -1.8916 H         1 ACP         0.0000
     44 HN61       -2.4952    5.6785   -1.4487 H         1 ACP         0.2048
     45 HN62       -3.8637    5.8828   -0.3819 H         1 ACP         0.2048
     46 H2         -2.9911    2.8734    3.1000 H         1 ACP        -0.1292
     47 H47        -3.9253    4.5332    1.6302 H         1 ACP         0.2048
@<TRIPOS>BOND
     1    1    2 2
     2    1    3 1
     3    1    4 1
     4    1    8 1
     5    4   32 1
     6    5    6 2
     7    5    7 1
     8    5    8 1
     9    5   12 1
    10    8   33 1
    11    8   34 1
    12    9   10 2
    13    9   11 1
    14    9   12 1
    15    9   13 1
    16   13   14 1
    17   14   15 1
    18   14   35 1
    19   14   36 1
    20   15   16 1
    21   15   17 1
    22   15   37 1
    23   16   21 1
    24   17   18 1
    25   17   19 1
    26   17   38 1
    27   18   39 1
    28   19   20 1
    29   19   21 1
    30   19   40 1
    31   20   41 1
    32   21   22 1
    33   21   42 1
    34   22   23 ar
    35   22   31 ar
    36   23   24 ar
    37   23   43 1
    38   24   25 ar
    39   25   26 ar
    40   25   31 ar
    41   26   27 1
    42   26   28 ar
    43   27   44 1
    44   27   45 1
    45   28   29 ar
    46   28   47 1
    47   29   30 ar
    48   29   46 1
    49   30   31 ar
@<TRIPOS>SUBSTRUCTURE
     1 ACP         1 GROUP 0 A     ****
@<TRIPOS>MOLECULE
[[5-(6-amino-1,8-dihydropurine-6,8-diylium-7-id-9-yl)-3,4-dihydroxy-tetrahydrofuran-2-yl]methoxy-oxido-phosphoryl]oxy-[[hydroxy(oxido)phosphoryl]methyl]phosphinate
   47    49     1     0     0
SMALL
USER_CHARGES

@<TRIPOS>ATOM
      1 PG         -2.3103   -0.4650   -3.0136 P.3       1 ACP        -1.2804
      2 O1G        -2.2859    0.4467   -4.2182 O.co2     1 ACP         0.3195
      3 O2G        -1.3625   -0.2848   -1.8502 O.co2     1 ACP         0.3195
      4 O3G        -3.8373   -0.5815   -2.4530 O.3       1 ACP         0.0326
      5 PB         -0.6408   -2.7814   -4.5701 P.3       1 ACP        -1.2804
      6 O1B        -0.5592   -1.9529   -5.8309 O.co2     1 ACP         0.3195
      7 O2B        -0.6954   -4.2915   -4.6021 O.co2     1 ACP         0.3195
      8 C3B        -2.1151   -2.1986   -3.6208 C.3       1 ACP         0.8942
      9 PA          2.1362   -2.2698   -3.6575 P.3       1 ACP        -1.1062
     10 O1A         2.5073   -1.2450   -4.7072 O.co2     1 ACP         0.3195
     11 O2A         2.6360   -3.6946   -3.7605 O.co2     1 ACP         0.3195
     12 O3A         0.5093   -2.3009   -3.5192 O.3       1 ACP         0.4672
     13 O5'         2.5237   -1.6631   -2.1889 O.3       1 ACP         0.1618
     14 C5'         2.2816   -0.2918   -1.9206 C.3       1 ACP         0.1504
     15 C4'         2.7248    0.0226   -0.4980 C.3       1 ACP         0.1111
     16 O4'         2.4697    1.4219   -0.2462 O.3       1 ACP        -0.1436
     17 C3'         1.9404   -0.7419    0.5596 C.3       1 ACP         0.1111
     18 O3'         2.7418   -0.8086    1.7389 O.3       1 ACP        -0.2728
     19 C2'         0.7477    0.1630    0.7858 C.3       1 ACP         0.1111
     20 O2'         0.1373   -0.0577    2.0407 O.3       1 ACP        -0.2728
     21 C1'         1.3733    1.5427    0.6747 C.3       1 ACP         0.2693
     22 N9          0.4520    2.5240    0.1767 N.pl3     1 ACP        -0.3222
     23 C8          0.1798    2.8712   -1.2933 C.ar      1 ACP         0.1640
     24 N7         -0.7494    3.8400   -1.3610 N.2       1 ACP        -0.1640
     25 C5         -1.0173    4.0603   -0.0358 C.ar      1 ACP         0.0820
     26 C6         -2.0105    5.0717    0.4241 C.ar      1 ACP         0.1640
     27 N6         -2.6723    5.7982   -0.4628 N.pl3     1 ACP        -0.4916
     28 N1         -2.1445    5.1522    1.7502 N.pl3     1 ACP        -0.4390
     29 C2         -1.3755    4.3143    2.6426 C.ar      1 ACP         0.5691
     30 N3         -0.5075    3.4292    2.2616 N.ar      1 ACP        -0.4283
     31 C4         -0.3667    3.3425    0.9070 C.ar      1 ACP         0.2226
     32 HOG3       -4.2910    0.2366   -2.1580 H         1 ACP         0.2010
     33 H3B1       -2.9893   -2.3998   -4.2498 H         1 ACP        -0.0393
     34 H3B2       -2.1877   -2.8484   -2.7417 H         1 ACP        -0.0393
     35 H5'1        2.8429    0.3140   -2.6391 H         1 ACP        -0.0393
     36 H5'2        1.2125   -0.0906   -2.0420 H         1 ACP        -0.0393
     37 H4'         3.8046   -0.1390   -0.4011 H         1 ACP        -0.0393
     38 H3'         1.6787   -1.7627    0.2719 H         1 ACP        -0.0393
     39 HO3'        2.2231   -1.2979    2.3952 H         1 ACP         0.2010
     40 H2'         0.0002   -0.0084   -0.0014 H         1 ACP        -0.0393
     41 HO2'       -0.6132    0.5577    2.1063 H         1 ACP         0.2010
     42 H1'         1.7718    1.9211    1.6015 H         1 ACP        -0.0393
     43 H8          0.6089    2.4651   -2.2147 H         1 ACP         0.0000
     44 HN61       -2.5055    5.6680   -1.4503 H         1 ACP         0.2048
     45 HN62       -3.3462    6.4841   -0.1542 H         1 ACP         0.2048
     46 H2         -1.5932    4.4937    3.7066 H         1 ACP        -0.1292
     47 H47        -2.8098    5.8270    2.1160 H         1 ACP         0.2048
@<TRIPOS>BOND
     1    1    2 2
     2    1    3 1
     3    1    4 1
     4    1    8 1
     5    4   32 1
     6    5    6 2
     7    5    7 1
     8    5    8 1
     9    5   12 1
    10    8   33 1
    11    8   34 1
    12    9   10 2
    13    9   11 1
    14    9   12 1
    15    9   13 1
    16   13   14 1
    17   14   15 1
    18   14   35 1
    19   14   36 1
    20   15   16 1
    21   15   17 1
    22   15   37 1
    23   16   21 1
    24   17   18 1
    25   17   19 1
    26   17   38 1
    27   18   39 1
    28   19   20 1
    29   19   21 1
    30   19   40 1
    31   20   41 1
    32   21   22 1
    33   21   42 1
    34   22   23 ar
    35   22   31 ar
    36   23   24 ar
    37   23   43 1
    38   24   25 ar
    39   25   26 ar
    40   25   31 ar
    41   26   27 1
    42   26   28 ar
    43   27   44 1
    44   27   45 1
    45   28   29 ar
    46   28   47 1
    47   29   30 ar
    48   29   46 1
    49   30   31 ar
@<TRIPOS>SUBSTRUCTURE
     1 ACP         1 GROUP 0 A     ****
@<TRIPOS>MOLECULE
[[5-(6-amino-1,8-dihydropurine-6,8-diylium-7-id-9-yl)-3,4-dihydroxy-tetrahydrofuran-2-yl]methoxy-oxido-phosphoryl]oxy-[[hydroxy(oxido)phosphoryl]methyl]phosphinate
   47    49     1     0     0
SMALL
USER_CHARGES

@<TRIPOS>ATOM
      1 PG         -2.1638    0.2574   -3.7143 P.3       1 ACP        -1.2804
      2 O1G        -3.3803    0.9122   -3.1025 O.co2     1 ACP         0.3195
      3 O2G        -1.0908   -0.3915   -2.8706 O.co2     1 ACP         0.3195
      4 O3G        -2.6361   -0.7812   -4.8797 O.3       1 ACP         0.0326
      5 PB          0.2023    1.1636   -5.7528 P.3       1 ACP        -1.2804
      6 O1B         0.5614    2.4265   -6.5003 O.co2     1 ACP         0.3195
      7 O2B         0.0039   -0.1590   -6.4569 O.co2     1 ACP         0.3195
      8 C3B        -1.3369    1.5100   -4.7910 C.3       1 ACP         0.8942
      9 PA          2.7389    0.3751   -4.4298 P.3       1 ACP        -1.1062
     10 O1A         3.6524    1.3383   -5.1562 O.co2     1 ACP         0.3195
     11 O2A         2.7044   -1.0896   -4.8094 O.co2     1 ACP         0.3195
     12 O3A         1.2162    0.9618   -4.4921 O.3       1 ACP         0.4672
     13 O5'         3.0198    0.5138   -2.8245 O.3       1 ACP         0.1618
     14 C5'         2.2816   -0.2918   -1.9206 C.3       1 ACP         0.1504
     15 C4'         2.7248    0.0226   -0.4980 C.3       1 ACP         0.1111
     16 O4'         2.4697    1.4219   -0.2462 O.3       1 ACP        -0.1436
     17 C3'         1.9404   -0.7419    0.5596 C.3       1 ACP         0.1111
     18 O3'         2.7418   -0.8086    1.7389 O.3       1 ACP        -0.2728
     19 C2'         0.7477    0.1630    0.7858 C.3       1 ACP         0.1111
     20 O2'         0.1373   -0.0577    2.0407 O.3       1 ACP        -0.2728
     21 C1'         1.3733    1.5427    0.6747 C.3       1 ACP         0.2693
     22 N9          0.4520    2.5240    0.1767 N.pl3     1 ACP        -0.3222
     23 C8         -1.0247    2.3053   -0.1800 C.ar      1 ACP         0.1640
     24 N7         -1.5580    3.4612   -0.6116 N.2       1 ACP        -0.1640
     25 C5         -0.4873    4.3110   -0.5222 C.ar      1 ACP         0.0820
     26 C6         -0.5728    5.7505   -0.8981 C.ar      1 ACP         0.1640
     27 N6         -1.7163    6.2514   -1.3385 N.pl3     1 ACP        -0.4916
     28 N1          0.5667    6.4301   -0.7475 N.pl3     1 ACP        -0.4390
     29 C2          1.7697    5.7952   -0.2579 C.ar      1 ACP         0.5691
     30 N3          1.8633    4.5450    0.0742 N.ar      1 ACP        -0.4283
     31 C4          0.7014    3.8457   -0.0776 C.ar      1 ACP         0.2226
     32 HOG3       -3.2245   -1.5260   -4.6322 H         1 ACP         0.2010
     33 H3B1       -1.1134    2.3656   -4.1441 H         1 ACP        -0.0393
     34 H3B2       -2.0851    1.8381   -5.5211 H         1 ACP        -0.0393
     35 H5'1        1.2153   -0.0781   -2.0454 H         1 ACP        -0.0393
     36 H5'2        2.4645   -1.3454   -2.1547 H         1 ACP        -0.0393
     37 H4'         3.8046   -0.1390   -0.4011 H         1 ACP        -0.0393
     38 H3'         1.6787   -1.7627    0.2719 H         1 ACP        -0.0393
     39 HO3'        2.2231   -1.2979    2.3952 H         1 ACP         0.2010
     40 H2'         0.0002   -0.0084   -0.0014 H         1 ACP        -0.0393
     41 HO2'       -0.1554   -0.9852    2.0577 H         1 ACP         0.2010
     42 H1'         1.7718    1.9211    1.6015 H         1 ACP        -0.0393
     43 H8         -1.6458    1.4054   -0.1318 H         1 ACP         0.0000
     44 HN61       -2.5307    5.6598   -1.4199 H         1 ACP         0.2048
     45 HN62       -1.7773    7.2266   -1.5938 H         1 ACP         0.2048
     46 H2          2.6279    6.4808   -0.1872 H         1 ACP        -0.1292
     47 H47         0.5621    7.4166   -0.9900 H         1 ACP         0.2048
@<TRIPOS>BOND
     1    1    2 2
     2    1    3 1
     3    1    4 1
     4    1    8 1
     5    4   32 1
     6    5    6 2
     7    5    7 1
     8    5    8 1
     9    5   12 1
    10    8   33 1
    11    8   34 1
    12    9   10 2
    13    9   11 1
    14    9   12 1
    15    9   13 1
    16   13   14 1
    17   14   15 1
    18   14   35 1
    19   14   36 1
    20   15   16 1
    21   15   17 1
    22   15   37 1
    23   16   21 1
    24   17   18 1
    25   17   19 1
    26   17   38 1
    27   18   39 1
    28   19   20 1
    29   19   21 1
    30   19   40 1
    31   20   41 1
    32   21   22 1
    33   21   42 1
    34   22   23 ar
    35   22   31 ar
    36   23   24 ar
    37   23   43 1
    38   24   25 ar
    39   25   26 ar
    40   25   31 ar
    41   26   27 1
    42   26   28 ar
    43   27   44 1
    44   27   45 1
    45   28   29 ar
    46   28   47 1
    47   29   30 ar
    48   29   46 1
    49   30   31 ar
@<TRIPOS>SUBSTRUCTURE
     1 ACP         1 GROUP 0 A     ****
@<TRIPOS>MOLECULE
[[5-(6-amino-1,8-dihydropurine-6,8-diylium-7-id-9-yl)-3,4-dihydroxy-tetrahydrofuran-2-yl]methoxy-oxido-phosphoryl]oxy-[[hydroxy(oxido)phosphoryl]methyl]phosphinate
   47    49     1     0     0
SMALL
USER_CHARGES

@<TRIPOS>ATOM
      1 PG          0.4265    0.7527   -6.0514 P.3       1 ACP        -1.2804
      2 O1G         0.1335    1.4466   -7.3612 O.co2     1 ACP         0.3195
      3 O2G         1.5354    1.2085   -5.1312 O.co2     1 ACP         0.3195
      4 O3G        -0.9550    0.6003   -5.1981 O.3       1 ACP         0.0326
      5 PB          1.1090   -2.2866   -5.1176 P.3       1 ACP        -1.2804
      6 O1B         1.2707   -3.6202   -5.8089 O.co2     1 ACP         0.3195
      7 O2B         0.1303   -2.0815   -3.9842 O.co2     1 ACP         0.3195
      8 C3B         0.7134   -1.0349   -6.4179 C.3       1 ACP         0.8942
      9 PA          3.5286   -2.0718   -3.4129 P.3       1 ACP        -1.1062
     10 O1A         4.6988   -1.1125   -3.4065 O.co2     1 ACP         0.3195
     11 O2A         3.7579   -3.5677   -3.3967 O.co2     1 ACP         0.3195
     12 O3A         2.5709   -1.7089   -4.6849 O.3       1 ACP         0.4672
     13 O5'         2.5237   -1.6631   -2.1889 O.3       1 ACP         0.1618
     14 C5'         2.2816   -0.2918   -1.9206 C.3       1 ACP         0.1504
     15 C4'         2.7248    0.0226   -0.4980 C.3       1 ACP         0.1111
     16 O4'         2.4697    1.4219   -0.2462 O.3       1 ACP        -0.1436
     17 C3'         1.9404   -0.7419    0.5596 C.3       1 ACP         0.1111
     18 O3'         2.7418   -0.8086    1.7389 O.3       1 ACP        -0.2728
     19 C2'         0.7477    0.1630    0.7858 C.3       1 ACP         0.1111
     20 O2'         0.1373   -0.0577    2.0407 O.3       1 ACP        -0.2728
     21 C1'         1.3733    1.5427    0.6747 C.3       1 ACP         0.2693
     22 N9          0.4520    2.5240    0.1767 N.pl3     1 ACP        -0.3222
     23 C8          0.1798    2.8712   -1.2933 C.ar      1 ACP         0.1640
     24 N7         -0.7494    3.8400   -1.3610 N.2       1 ACP        -0.1640
     25 C5         -1.0173    4.0603   -0.0358 C.ar      1 ACP         0.0820
     26 C6         -2.0105    5.0717    0.4241 C.ar      1 ACP         0.1640
     27 N6         -2.6723    5.7982   -0.4628 N.pl3     1 ACP        -0.4916
     28 N1         -2.1445    5.1522    1.7502 N.pl3     1 ACP        -0.4390
     29 C2         -1.3755    4.3143    2.6426 C.ar      1 ACP         0.5691
     30 N3         -0.5075    3.4292    2.2616 N.ar      1 ACP        -0.4283
     31 C4         -0.3667    3.3425    0.9070 C.ar      1 ACP         0.2226
     32 HOG3       -1.4424    1.4139   -4.9479 H         1 ACP         0.2010
     33 H3B1        1.5353   -1.0679   -7.1416 H         1 ACP        -0.0393
     34 H3B2       -0.1861   -1.3984   -6.9271 H         1 ACP        -0.0393
     35 H5'1        2.8429    0.3140   -2.6391 H         1 ACP        -0.0393
     36 H5'2        1.2125   -0.0906   -2.0420 H         1 ACP        -0.0393
     37 H4'         3.8046   -0.1390   -0.4011 H         1 ACP        -0.0393
     38 H3'         1.6787   -1.7627    0.2719 H         1 ACP        -0.0393
     39 HO3'        2.2231   -1.2979    2.3952 H         1 ACP         0.2010
     40 H2'         0.0002   -0.0084   -0.0014 H         1 ACP        -0.0393
     41 HO2'       -0.6132    0.5577    2.1063 H         1 ACP         0.2010
     42 H1'         1.7718    1.9211    1.6015 H         1 ACP        -0.0393
     43 H8          0.6089    2.4651   -2.2147 H         1 ACP         0.0000
     44 HN61       -2.5055    5.6680   -1.4503 H         1 ACP         0.2048
     45 HN62       -3.3462    6.4841   -0.1542 H         1 ACP         0.2048
     46 H2         -1.5932    4.4937    3.7066 H         1 ACP        -0.1292
     47 H47        -2.8098    5.8270    2.1160 H         1 ACP         0.2048
@<TRIPOS>BOND
     1    1    2 2
     2    1    3 1
     3    1    4 1
     4    1    8 1
     5    4   32 1
     6    5    6 2
     7    5    7 1
     8    5    8 1
     9    5   12 1
    10    8   33 1
    11    8   34 1
    12    9   10 2
    13    9   11 1
    14    9   12 1
    15    9   13 1
    16   13   14 1
    17   14   15 1
    18   14   35 1
    19   14   36 1
    20   15   16 1
    21   15   17 1
    22   15   37 1
    23   16   21 1
    24   17   18 1
    25   17   19 1
    26   17   38 1
    27   18   39 1
    28   19   20 1
    29   19   21 1
    30   19   40 1
    31   20   41 1
    32   21   22 1
    33   21   42 1
    34   22   23 ar
    35   22   31 ar
    36   23   24 ar
    37   23   43 1
    38   24   25 ar
    39   25   26 ar
    40   25   31 ar
    41   26   27 1
    42   26   28 ar
    43   27   44 1
    44   27   45 1
    45   28   29 ar
    46   28   47 1
    47   29   30 ar
    48   29   46 1
    49   30   31 ar
@<TRIPOS>SUBSTRUCTURE
     1 ACP         1 GROUP 0 A     ****
@<TRIPOS>MOLECULE
[[5-(6-amino-1,8-dihydropurine-6,8-diylium-7-id-9-yl)-3,4-dihydroxy-tetrahydrofuran-2-yl]methoxy-oxido-phosphoryl]oxy-[[hydroxy(oxido)phosphoryl]methyl]phosphinate
   47    49     1     0     0
SMALL
USER_CHARGES

@<TRIPOS>ATOM
      1 PG         -1.3288   -1.3352   -4.5948 P.3       1 ACP        -1.2804
      2 O1G        -0.2013   -2.3338   -4.4747 O.co2     1 ACP         0.3195
      3 O2G        -2.6901   -1.7204   -5.1263 O.co2     1 ACP         0.3195
      4 O3G        -1.5056   -0.5448   -3.1792 O.3       1 ACP         0.0326
      5 PB          0.7311    1.1214   -5.1398 P.3       1 ACP        -1.2804
      6 O1B         0.4103    1.7589   -3.8082 O.co2     1 ACP         0.3195
      7 O2B         1.1129    1.9393   -6.3521 O.co2     1 ACP         0.3195
      8 C3B        -0.7174    0.0777   -5.6157 C.3       1 ACP         0.8942
      9 PA          3.3324   -0.0529   -4.3266 P.3       1 ACP        -1.1062
     10 O1A         4.1264    0.9964   -5.0738 O.co2     1 ACP         0.3195
     11 O2A         3.8347   -1.4774   -4.2320 O.co2     1 ACP         0.3195
     12 O3A         1.8151   -0.0782   -4.9299 O.3       1 ACP         0.4672
     13 O5'         3.0198    0.5138   -2.8245 O.3       1 ACP         0.1618
     14 C5'         2.2816   -0.2918   -1.9206 C.3       1 ACP         0.1504
     15 C4'         2.7248    0.0226   -0.4980 C.3       1 ACP         0.1111
     16 O4'         2.4697    1.4219   -0.2462 O.3       1 ACP        -0.1436
     17 C3'         1.9404   -0.7419    0.5596 C.3       1 ACP         0.1111
     18 O3'         2.7418   -0.8086    1.7389 O.3       1 ACP        -0.2728
     19 C2'         0.7477    0.1630    0.7858 C.3       1 ACP         0.1111
     20 O2'         0.1373   -0.0577    2.0407 O.3       1 ACP        -0.2728
     21 C1'         1.3733    1.5427    0.6747 C.3       1 ACP         0.2693
     22 N9          0.4520    2.5240    0.1767 N.pl3     1 ACP        -0.3222
     23 C8         -1.0660    2.5608    0.3999 C.ar      1 ACP         0.1640
     24 N7         -1.5852    3.6333   -0.2221 N.2       1 ACP        -0.1640
     25 C5         -0.4682    4.1996   -0.7771 C.ar      1 ACP         0.0820
     26 C6         -0.5216    5.4476   -1.5899 C.ar      1 ACP         0.1640
     27 N6         -1.6813    6.0510   -1.7982 N.pl3     1 ACP        -0.4916
     28 N1          0.6621    5.8575   -2.0523 N.pl3     1 ACP        -0.4390
     29 C2          1.8795    5.1301   -1.7717 C.ar      1 ACP         0.5691
     30 N3          1.9458    4.0434   -1.0670 N.ar      1 ACP        -0.4283
     31 C4          0.7388    3.6199   -0.5917 C.ar      1 ACP         0.2226
     32 HOG3       -1.7164   -1.0662   -2.3755 H         1 ACP         0.2010
     33 H3B1       -1.5676    0.7593   -5.7300 H         1 ACP        -0.0393
     34 H3B2       -0.4878   -0.3285   -6.6070 H         1 ACP        -0.0393
     35 H5'1        1.2153   -0.0781   -2.0454 H         1 ACP        -0.0393
     36 H5'2        2.4645   -1.3454   -2.1547 H         1 ACP        -0.0393
     37 H4'         3.8046   -0.1390   -0.4011 H         1 ACP        -0.0393
     38 H3'         1.6787   -1.7627    0.2719 H         1 ACP        -0.0393
     39 HO3'        2.2231   -1.2979    2.3952 H         1 ACP         0.2010
     40 H2'         0.0002   -0.0084   -0.0014 H         1 ACP        -0.0393
     41 HO2'       -0.1554   -0.9852    2.0577 H         1 ACP         0.2010
     42 H1'         1.7718    1.9211    1.6015 H         1 ACP        -0.0393
     43 H8         -1.7235    1.8833    0.9537 H         1 ACP         0.0000
     44 HN61       -2.5296    5.6672   -1.4072 H         1 ACP         0.2048
     45 HN62       -1.7205    6.8969   -2.3483 H         1 ACP         0.2048
     46 H2          2.7750    5.5878   -2.2190 H         1 ACP        -0.1292
     47 H47         0.6808    6.7046   -2.6128 H         1 ACP         0.2048
@<TRIPOS>BOND
     1    1    2 2
     2    1    3 1
     3    1    4 1
     4    1    8 1
     5    4   32 1
     6    5    6 2
     7    5    7 1
     8    5    8 1
     9    5   12 1
    10    8   33 1
    11    8   34 1
    12    9   10 2
    13    9   11 1
    14    9   12 1
    15    9   13 1
    16   13   14 1
    17   14   15 1
    18   14   35 1
    19   14   36 1
    20   15   16 1
    21   15   17 1
    22   15   37 1
    23   16   21 1
    24   17   18 1
    25   17   19 1
    26   17   38 1
    27   18   39 1
    28   19   20 1
    29   19   21 1
    30   19   40 1
    31   20   41 1
    32   21   22 1
    33   21   42 1
    34   22   23 ar
    35   22   31 ar
    36   23   24 ar
    37   23   43 1
    38   24   25 ar
    39   25   26 ar
    40   25   31 ar
    41   26   27 1
    42   26   28 ar
    43   27   44 1
    44   27   45 1
    45   28   29 ar
    46   28   47 1
    47   29   30 ar
    48   29   46 1
    49   30   31 ar
@<TRIPOS>SUBSTRUCTURE
     1 ACP         1 GROUP 0 A     ****
@<TRIPOS>MOLECULE
[[5-(6-amino-1,8-dihydropurine-6,8-diylium-7-id-9-yl)-3,4-dihydroxy-tetrahydrofuran-2-yl]methoxy-oxido-phosphoryl]oxy-[[hydroxy(oxido)phosphoryl]methyl]phosphinate
   47    49     1     0     0
SMALL
USER_CHARGES

@<TRIPOS>ATOM
      1 PG          0.1002    2.2420   -6.1216 P.3       1 ACP        -1.2804
      2 O1G         0.9843    2.8389   -7.1916 O.co2     1 ACP         0.3195
      3 O2G         0.3770    2.4382   -4.6488 O.co2     1 ACP         0.3195
      4 O3G        -1.4561    2.6170   -6.4332 O.3       1 ACP         0.0326
      5 PB          1.4818   -0.6857   -6.4298 P.3       1 ACP        -1.2804
      6 O1B         2.4135   -0.1933   -7.5126 O.co2     1 ACP         0.3195
      7 O2B         0.9758   -2.1093   -6.3902 O.co2     1 ACP         0.3195
      8 C3B         0.0035    0.4228   -6.4272 C.3       1 ACP         0.8942
      9 PA          3.4821   -0.6660   -4.2377 P.3       1 ACP        -1.1062
     10 O1A         4.6119   -0.0112   -5.0023 O.co2     1 ACP         0.3195
     11 O2A         3.4912   -2.1564   -3.9749 O.co2     1 ACP         0.3195
     12 O3A         2.0730   -0.2777   -4.9662 O.3       1 ACP         0.4672
     13 O5'         3.2883    0.1336   -2.8242 O.3       1 ACP         0.1618
     14 C5'         2.2816   -0.2918   -1.9206 C.3       1 ACP         0.1504
     15 C4'         2.7248    0.0226   -0.4980 C.3       1 ACP         0.1111
     16 O4'         2.4697    1.4219   -0.2462 O.3       1 ACP        -0.1436
     17 C3'         1.9404   -0.7419    0.5596 C.3       1 ACP         0.1111
     18 O3'         2.7418   -0.8086    1.7389 O.3       1 ACP        -0.2728
     19 C2'         0.7477    0.1630    0.7858 C.3       1 ACP         0.1111
     20 O2'         0.1373   -0.0577    2.0407 O.3       1 ACP        -0.2728
     21 C1'         1.3733    1.5427    0.6747 C.3       1 ACP         0.2693
     22 N9          0.4520    2.5240    0.1767 N.pl3     1 ACP        -0.3222
     23 C8         -0.3054    2.4845   -1.1576 C.ar      1 ACP         0.1640
     24 N7         -1.0755    3.5806   -1.2691 N.2       1 ACP        -0.1640
     25 C5         -0.8043    4.2306   -0.0942 C.ar      1 ACP         0.0820
     26 C6         -1.4324    5.5335    0.2646 C.ar      1 ACP         0.1640
     27 N6         -2.2885    6.1055   -0.5675 N.pl3     1 ACP        -0.4916
     28 N1         -1.0537    6.0229    1.4478 N.pl3     1 ACP        -0.4390
     29 C2         -0.1096    5.3242    2.2908 C.ar      1 ACP         0.5691
     30 N3          0.4468    4.1904    1.9960 N.ar      1 ACP        -0.4283
     31 C4          0.0631    3.6855    0.7877 C.ar      1 ACP         0.2226
     32 HOG3       -1.7108    3.5636   -6.4703 H         1 ACP         0.2010
     33 H3B1       -0.4753    0.3047   -7.4056 H         1 ACP        -0.0393
     34 H3B2       -0.6818    0.0150   -5.6759 H         1 ACP        -0.0393
     35 H5'1        1.3500    0.2325   -2.1560 H         1 ACP        -0.0393
     36 H5'2        2.1267   -1.3683   -2.0444 H         1 ACP        -0.0393
     37 H4'         3.8046   -0.1390   -0.4011 H         1 ACP        -0.0393
     38 H3'         1.6787   -1.7627    0.2719 H         1 ACP        -0.0393
     39 HO3'        2.2231   -1.2979    2.3952 H         1 ACP         0.2010
     40 H2'         0.0002   -0.0084   -0.0014 H         1 ACP        -0.0393
     41 HO2'       -0.6132    0.5577    2.1063 H         1 ACP         0.2010
     42 H1'         1.7718    1.9211    1.6015 H         1 ACP        -0.0393
     43 H8         -0.2991    1.7413   -1.9611 H         1 ACP         0.0000
     44 HN61       -2.5167    5.6603   -1.4447 H         1 ACP         0.2048
     45 HN62       -2.7159    6.9882   -0.3270 H         1 ACP         0.2048
     46 H2          0.1059    5.8491    3.2340 H         1 ACP        -0.1292
     47 H47        -1.4532    6.9099    1.7401 H         1 ACP         0.2048
@<TRIPOS>BOND
     1    1    2 2
     2    1    3 1
     3    1    4 1
     4    1    8 1
     5    4   32 1
     6    5    6 2
     7    5    7 1
     8    5    8 1
     9    5   12 1
    10    8   33 1
    11    8   34 1
    12    9   10 2
    13    9   11 1
    14    9   12 1
    15    9   13 1
    16   13   14 1
    17   14   15 1
    18   14   35 1
    19   14   36 1
    20   15   16 1
    21   15   17 1
    22   15   37 1
    23   16   21 1
    24   17   18 1
    25   17   19 1
    26   17   38 1
    27   18   39 1
    28   19   20 1
    29   19   21 1
    30   19   40 1
    31   20   41 1
    32   21   22 1
    33   21   42 1
    34   22   23 ar
    35   22   31 ar
    36   23   24 ar
    37   23   43 1
    38   24   25 ar
    39   25   26 ar
    40   25   31 ar
    41   26   27 1
    42   26   28 ar
    43   27   44 1
    44   27   45 1
    45   28   29 ar
    46   28   47 1
    47   29   30 ar
    48   29   46 1
    49   30   31 ar
@<TRIPOS>SUBSTRUCTURE
     1 ACP         1 GROUP 0 A     ****
@<TRIPOS>MOLECULE
[[5-(6-amino-1,8-dihydropurine-6,8-diylium-7-id-9-yl)-3,4-dihydroxy-tetrahydrofuran-2-yl]methoxy-oxido-phosphoryl]oxy-[[hydroxy(oxido)phosphoryl]methyl]phosphinate
   47    49     1     0     0
SMALL
USER_CHARGES

@<TRIPOS>ATOM
      1 PG         -1.3288   -1.3352   -4.5948 P.3       1 ACP        -1.2804
      2 O1G        -2.5178   -1.9343   -5.3090 O.co2     1 ACP         0.3195
      3 O2G        -1.4087   -0.8566   -3.1634 O.co2     1 ACP         0.3195
      4 O3G        -0.0417   -2.3226   -4.7630 O.3       1 ACP         0.0326
      5 PB          0.7311    1.1214   -5.1398 P.3       1 ACP        -1.2804
      6 O1B         0.4103    1.7589   -3.8082 O.co2     1 ACP         0.3195
      7 O2B         1.1129    1.9393   -6.3521 O.co2     1 ACP         0.3195
      8 C3B        -0.7174    0.0777   -5.6157 C.3       1 ACP         0.8942
      9 PA          3.3324   -0.0529   -4.3266 P.3       1 ACP        -1.1062
     10 O1A         4.1264    0.9964   -5.0738 O.co2     1 ACP         0.3195
     11 O2A         3.8347   -1.4774   -4.2320 O.co2     1 ACP         0.3195
     12 O3A         1.8151   -0.0782   -4.9299 O.3       1 ACP         0.4672
     13 O5'         3.0198    0.5138   -2.8245 O.3       1 ACP         0.1618
     14 C5'         2.2816   -0.2918   -1.9206 C.3       1 ACP         0.1504
     15 C4'         2.7248    0.0226   -0.4980 C.3       1 ACP         0.1111
     16 O4'         2.4697    1.4219   -0.2462 O.3       1 ACP        -0.1436
     17 C3'         1.9404   -0.7419    0.5596 C.3       1 ACP         0.1111
     18 O3'         2.7418   -0.8086    1.7389 O.3       1 ACP        -0.2728
     19 C2'         0.7477    0.1630    0.7858 C.3       1 ACP         0.1111
     20 O2'         0.1373   -0.0577    2.0407 O.3       1 ACP        -0.2728
     21 C1'         1.3733    1.5427    0.6747 C.3       1 ACP         0.2693
     22 N9          0.4520    2.5240    0.1767 N.pl3     1 ACP        -0.3222
     23 C8          0.5793    3.3338   -1.1209 C.ar      1 ACP         0.1640
     24 N7         -0.4807    4.1508   -1.2458 N.2       1 ACP        -0.1640
     25 C5         -1.1921    3.8572   -0.1126 C.ar      1 ACP         0.0820
     26 C6         -2.4855    4.5203    0.2163 C.ar      1 ACP         0.1640
     27 N6         -2.9873    5.4319   -0.6020 N.pl3     1 ACP        -0.4916
     28 N1         -3.0414    4.1119    1.3596 N.pl3     1 ACP        -0.4390
     29 C2         -2.4169    3.1071    2.1904 C.ar      1 ACP         0.5691
     30 N3         -1.2928    2.5191    1.9210 N.ar      1 ACP        -0.4283
     31 C4         -0.7202    2.9326    0.7534 C.ar      1 ACP         0.2226
     32 HOG3       -0.1066   -3.2386   -4.4180 H         1 ACP         0.2010
     33 H3B1       -1.5676    0.7593   -5.7300 H         1 ACP        -0.0393
     34 H3B2       -0.4878   -0.3285   -6.6070 H         1 ACP        -0.0393
     35 H5'1        1.2153   -0.0781   -2.0454 H         1 ACP        -0.0393
     36 H5'2        2.4645   -1.3454   -2.1547 H         1 ACP        -0.0393
     37 H4'         3.8046   -0.1390   -0.4011 H         1 ACP        -0.0393
     38 H3'         1.6787   -1.7627    0.2719 H         1 ACP        -0.0393
     39 HO3'        2.2231   -1.2979    2.3952 H         1 ACP         0.2010
     40 H2'         0.0002   -0.0084   -0.0014 H         1 ACP        -0.0393
     41 HO2'       -0.1554   -0.9852    2.0577 H         1 ACP         0.2010
     42 H1'         1.7718    1.9211    1.6015 H         1 ACP        -0.0393
     43 H8          1.3565    3.3309   -1.8916 H         1 ACP         0.0000
     44 HN61       -2.4952    5.6785   -1.4487 H         1 ACP         0.2048
     45 HN62       -3.8637    5.8828   -0.3819 H         1 ACP         0.2048
     46 H2         -2.9911    2.8734    3.1000 H         1 ACP        -0.1292
     47 H47        -3.9253    4.5332    1.6302 H         1 ACP         0.2048
@<TRIPOS>BOND
     1    1    2 2
     2    1    3 1
     3    1    4 1
     4    1    8 1
     5    4   32 1
     6    5    6 2
     7    5    7 1
     8    5    8 1
     9    5   12 1
    10    8   33 1
    11    8   34 1
    12    9   10 2
    13    9   11 1
    14    9   12 1
    15    9   13 1
    16   13   14 1
    17   14   15 1
    18   14   35 1
    19   14   36 1
    20   15   16 1
    21   15   17 1
    22   15   37 1
    23   16   21 1
    24   17   18 1
    25   17   19 1
    26   17   38 1
    27   18   39 1
    28   19   20 1
    29   19   21 1
    30   19   40 1
    31   20   41 1
    32   21   22 1
    33   21   42 1
    34   22   23 ar
    35   22   31 ar
    36   23   24 ar
    37   23   43 1
    38   24   25 ar
    39   25   26 ar
    40   25   31 ar
    41   26   27 1
    42   26   28 ar
    43   27   44 1
    44   27   45 1
    45   28   29 ar
    46   28   47 1
    47   29   30 ar
    48   29   46 1
    49   30   31 ar
@<TRIPOS>SUBSTRUCTURE
     1 ACP         1 GROUP 0 A     ****
@<TRIPOS>MOLECULE
[[5-(6-amino-1,8-dihydropurine-6,8-diylium-7-id-9-yl)-3,4-dihydroxy-tetrahydrofuran-2-yl]methoxy-oxido-phosphoryl]oxy-[[hydroxy(oxido)phosphoryl]methyl]phosphinate
   47    49     1     0     0
SMALL
USER_CHARGES

@<TRIPOS>ATOM
      1 PG         -2.6261   -2.9182   -1.9981 P.3       1 ACP        -1.2804
      2 O1G        -3.8656   -2.1841   -1.5426 O.co2     1 ACP         0.3195
      3 O2G        -1.3877   -3.0151   -1.1372 O.co2     1 ACP         0.3195
      4 O3G        -3.0391   -4.4073   -2.5195 O.3       1 ACP         0.0326
      5 PB         -0.6408   -2.7814   -4.5701 P.3       1 ACP        -1.2804
      6 O1B        -0.5592   -1.9529   -5.8309 O.co2     1 ACP         0.3195
      7 O2B        -0.6954   -4.2915   -4.6021 O.co2     1 ACP         0.3195
      8 C3B        -2.1151   -2.1986   -3.6208 C.3       1 ACP         0.8942
      9 PA          2.1362   -2.2698   -3.6575 P.3       1 ACP        -1.1062
     10 O1A         2.5073   -1.2450   -4.7072 O.co2     1 ACP         0.3195
     11 O2A         2.6360   -3.6946   -3.7605 O.co2     1 ACP         0.3195
     12 O3A         0.5093   -2.3009   -3.5192 O.3       1 ACP         0.4672
     13 O5'         2.5237   -1.6631   -2.1889 O.3       1 ACP         0.1618
     14 C5'         2.2816   -0.2918   -1.9206 C.3       1 ACP         0.1504
     15 C4'         2.7248    0.0226   -0.4980 C.3       1 ACP         0.1111
     16 O4'         2.4697    1.4219   -0.2462 O.3       1 ACP        -0.1436
     17 C3'         1.9404   -0.7419    0.5596 C.3       1 ACP         0.1111
     18 O3'         2.7418   -0.8086    1.7389 O.3       1 ACP        -0.2728
     19 C2'         0.7477    0.1630    0.7858 C.3       1 ACP         0.1111
     20 O2'         0.1373   -0.0577    2.0407 O.3       1 ACP        -0.2728
     21 C1'         1.3733    1.5427    0.6747 C.3       1 ACP         0.2693
     22 N9          0.4520    2.5240    0.1767 N.pl3     1 ACP        -0.3222
     23 C8          0.5793    3.3338   -1.1209 C.ar      1 ACP         0.1640
     24 N7         -0.4807    4.1508   -1.2458 N.2       1 ACP        -0.1640
     25 C5         -1.1921    3.8572   -0.1126 C.ar      1 ACP         0.0820
     26 C6         -2.4855    4.5203    0.2163 C.ar      1 ACP         0.1640
     27 N6         -2.9873    5.4319   -0.6020 N.pl3     1 ACP        -0.4916
     28 N1         -3.0414    4.1119    1.3596 N.pl3     1 ACP        -0.4390
     29 C2         -2.4169    3.1071    2.1904 C.ar      1 ACP         0.5691
     30 N3         -1.2928    2.5191    1.9210 N.ar      1 ACP        -0.4283
     31 C4         -0.7202    2.9326    0.7534 C.ar      1 ACP         0.2226
     32 HOG3       -3.4761   -5.0191   -1.8894 H         1 ACP         0.2010
     33 H3B1       -1.9677   -1.1273   -3.4445 H         1 ACP        -0.0393
     34 H3B2       -2.9726   -2.3047   -4.2944 H         1 ACP        -0.0393
     35 H5'1        2.8429    0.3140   -2.6391 H         1 ACP        -0.0393
     36 H5'2        1.2125   -0.0906   -2.0420 H         1 ACP        -0.0393
     37 H4'         3.8046   -0.1390   -0.4011 H         1 ACP        -0.0393
     38 H3'         1.6787   -1.7627    0.2719 H         1 ACP        -0.0393
     39 HO3'        3.5553   -1.2733    1.4913 H         1 ACP         0.2010
     40 H2'         0.0002   -0.0084   -0.0014 H         1 ACP        -0.0393
     41 HO2'       -0.1554   -0.9852    2.0577 H         1 ACP         0.2010
     42 H1'         1.7718    1.9211    1.6015 H         1 ACP        -0.0393
     43 H8          1.3565    3.3309   -1.8916 H         1 ACP         0.0000
     44 HN61       -2.4952    5.6785   -1.4487 H         1 ACP         0.2048
     45 HN62       -3.8637    5.8828   -0.3819 H         1 ACP         0.2048
     46 H2         -2.9911    2.8734    3.1000 H         1 ACP        -0.1292
     47 H47        -3.9253    4.5332    1.6302 H         1 ACP         0.2048
@<TRIPOS>BOND
     1    1    2 2
     2    1    3 1
     3    1    4 1
     4    1    8 1
     5    4   32 1
     6    5    6 2
     7    5    7 1
     8    5    8 1
     9    5   12 1
    10    8   33 1
    11    8   34 1
    12    9   10 2
    13    9   11 1
    14    9   12 1
    15    9   13 1
    16   13   14 1
    17   14   15 1
    18   14   35 1
    19   14   36 1
    20   15   16 1
    21   15   17 1
    22   15   37 1
    23   16   21 1
    24   17   18 1
    25   17   19 1
    26   17   38 1
    27   18   39 1
    28   19   20 1
    29   19   21 1
    30   19   40 1
    31   20   41 1
    32   21   22 1
    33   21   42 1
    34   22   23 ar
    35   22   31 ar
    36   23   24 ar
    37   23   43 1
    38   24   25 ar
    39   25   26 ar
    40   25   31 ar
    41   26   27 1
    42   26   28 ar
    43   27   44 1
    44   27   45 1
    45   28   29 ar
    46   28   47 1
    47   29   30 ar
    48   29   46 1
    49   30   31 ar
@<TRIPOS>SUBSTRUCTURE
     1 ACP         1 GROUP 0 A     ****
@<TRIPOS>MOLECULE
[[5-(6-amino-1,8-dihydropurine-6,8-diylium-7-id-9-yl)-3,4-dihydroxy-tetrahydrofuran-2-yl]methoxy-oxido-phosphoryl]oxy-[[hydroxy(oxido)phosphoryl]methyl]phosphinate
   47    49     1     0     0
SMALL
USER_CHARGES

@<TRIPOS>ATOM
      1 PG          7.5093   -1.1511   -2.7925 P.3       1 ACP        -1.2804
      2 O1G         8.0177   -2.5518   -3.0420 O.co2     1 ACP         0.3195
      3 O2G         6.5441   -0.8340   -1.6735 O.co2     1 ACP         0.3195
      4 O3G         8.7716   -0.1205   -2.7251 O.3       1 ACP         0.0326
      5 PB          5.3244   -1.3769   -5.1905 P.3       1 ACP        -1.2804
      6 O1B         5.7568   -2.7849   -5.5268 O.co2     1 ACP         0.3195
      7 O2B         4.7951   -0.4259   -6.2392 O.co2     1 ACP         0.3195
      8 C3B         6.7513   -0.5436   -4.3636 C.3       1 ACP         0.8942
      9 PA          2.8591   -2.1299   -3.7201 P.3       1 ACP        -1.1062
     10 O1A         3.0727   -3.6280   -3.7234 O.co2     1 ACP         0.3195
     11 O2A         1.8686   -1.4903   -4.6689 O.co2     1 ACP         0.3195
     12 O3A         4.3077   -1.4018   -3.9162 O.3       1 ACP         0.4672
     13 O5'         2.5237   -1.6631   -2.1889 O.3       1 ACP         0.1618
     14 C5'         2.2816   -0.2918   -1.9206 C.3       1 ACP         0.1504
     15 C4'         2.7248    0.0226   -0.4980 C.3       1 ACP         0.1111
     16 O4'         2.4697    1.4219   -0.2462 O.3       1 ACP        -0.1436
     17 C3'         1.9404   -0.7419    0.5596 C.3       1 ACP         0.1111
     18 O3'         2.7418   -0.8086    1.7389 O.3       1 ACP        -0.2728
     19 C2'         0.7477    0.1630    0.7858 C.3       1 ACP         0.1111
     20 O2'         0.1373   -0.0577    2.0407 O.3       1 ACP        -0.2728
     21 C1'         1.3733    1.5427    0.6747 C.3       1 ACP         0.2693
     22 N9          0.4520    2.5240    0.1767 N.pl3     1 ACP        -0.3222
     23 C8         -0.3054    2.4845   -1.1576 C.ar      1 ACP         0.1640
     24 N7         -1.0755    3.5806   -1.2691 N.2       1 ACP        -0.1640
     25 C5         -0.8043    4.2306   -0.0942 C.ar      1 ACP         0.0820
     26 C6         -1.4324    5.5335    0.2646 C.ar      1 ACP         0.1640
     27 N6         -2.2885    6.1055   -0.5675 N.pl3     1 ACP        -0.4916
     28 N1         -1.0537    6.0229    1.4478 N.pl3     1 ACP        -0.4390
     29 C2         -0.1096    5.3242    2.2908 C.ar      1 ACP         0.5691
     30 N3          0.4468    4.1904    1.9960 N.ar      1 ACP        -0.4283
     31 C4          0.0631    3.6855    0.7877 C.ar      1 ACP         0.2226
     32 HOG3        9.4572   -0.2649   -2.0386 H         1 ACP         0.2010
     33 H3B1        7.5625   -0.5129   -5.0996 H         1 ACP        -0.0393
     34 H3B2        6.4363    0.4896   -4.1803 H         1 ACP        -0.0393
     35 H5'1        2.8429    0.3140   -2.6391 H         1 ACP        -0.0393
     36 H5'2        1.2125   -0.0906   -2.0420 H         1 ACP        -0.0393
     37 H4'         3.8046   -0.1390   -0.4011 H         1 ACP        -0.0393
     38 H3'         1.6787   -1.7627    0.2719 H         1 ACP        -0.0393
     39 HO3'        2.2231   -1.2979    2.3952 H         1 ACP         0.2010
     40 H2'         0.0002   -0.0084   -0.0014 H         1 ACP        -0.0393
     41 HO2'       -0.1554   -0.9852    2.0577 H         1 ACP         0.2010
     42 H1'         1.7718    1.9211    1.6015 H         1 ACP        -0.0393
     43 H8         -0.2991    1.7413   -1.9611 H         1 ACP         0.0000
     44 HN61       -2.5167    5.6603   -1.4447 H         1 ACP         0.2048
     45 HN62       -2.7159    6.9882   -0.3270 H         1 ACP         0.2048
     46 H2          0.1059    5.8491    3.2340 H         1 ACP        -0.1292
     47 H47        -1.4532    6.9099    1.7401 H         1 ACP         0.2048
@<TRIPOS>BOND
     1    1    2 2
     2    1    3 1
     3    1    4 1
     4    1    8 1
     5    4   32 1
     6    5    6 2
     7    5    7 1
     8    5    8 1
     9    5   12 1
    10    8   33 1
    11    8   34 1
    12    9   10 2
    13    9   11 1
    14    9   12 1
    15    9   13 1
    16   13   14 1
    17   14   15 1
    18   14   35 1
    19   14   36 1
    20   15   16 1
    21   15   17 1
    22   15   37 1
    23   16   21 1
    24   17   18 1
    25   17   19 1
    26   17   38 1
    27   18   39 1
    28   19   20 1
    29   19   21 1
    30   19   40 1
    31   20   41 1
    32   21   22 1
    33   21   42 1
    34   22   23 ar
    35   22   31 ar
    36   23   24 ar
    37   23   43 1
    38   24   25 ar
    39   25   26 ar
    40   25   31 ar
    41   26   27 1
    42   26   28 ar
    43   27   44 1
    44   27   45 1
    45   28   29 ar
    46   28   47 1
    47   29   30 ar
    48   29   46 1
    49   30   31 ar
@<TRIPOS>SUBSTRUCTURE
     1 ACP         1 GROUP 0 A     ****
@<TRIPOS>MOLECULE
[[5-(6-amino-1,8-dihydropurine-6,8-diylium-7-id-9-yl)-3,4-dihydroxy-tetrahydrofuran-2-yl]methoxy-oxido-phosphoryl]oxy-[[hydroxy(oxido)phosphoryl]methyl]phosphinate
   47    49     1     0     0
SMALL
USER_CHARGES

@<TRIPOS>ATOM
      1 PG          0.1002    2.2420   -6.1216 P.3       1 ACP        -1.2804
      2 O1G         0.6921    2.4436   -4.7462 O.co2     1 ACP         0.3195
      3 O2G        -1.2308    2.8378   -6.5188 O.co2     1 ACP         0.3195
      4 O3G         1.2164    2.6125   -7.2515 O.3       1 ACP         0.0326
      5 PB          1.4818   -0.6857   -6.4298 P.3       1 ACP        -1.2804
      6 O1B         2.4135   -0.1933   -7.5126 O.co2     1 ACP         0.3195
      7 O2B         0.9758   -2.1093   -6.3902 O.co2     1 ACP         0.3195
      8 C3B         0.0035    0.4228   -6.4272 C.3       1 ACP         0.8942
      9 PA          3.4821   -0.6660   -4.2377 P.3       1 ACP        -1.1062
     10 O1A         4.6119   -0.0112   -5.0023 O.co2     1 ACP         0.3195
     11 O2A         3.4912   -2.1564   -3.9749 O.co2     1 ACP         0.3195
     12 O3A         2.0730   -0.2777   -4.9662 O.3       1 ACP         0.4672
     13 O5'         3.2883    0.1336   -2.8242 O.3       1 ACP         0.1618
     14 C5'         2.2816   -0.2918   -1.9206 C.3       1 ACP         0.1504
     15 C4'         2.7248    0.0226   -0.4980 C.3       1 ACP         0.1111
     16 O4'         2.4697    1.4219   -0.2462 O.3       1 ACP        -0.1436
     17 C3'         1.9404   -0.7419    0.5596 C.3       1 ACP         0.1111
     18 O3'         2.7418   -0.8086    1.7389 O.3       1 ACP        -0.2728
     19 C2'         0.7477    0.1630    0.7858 C.3       1 ACP         0.1111
     20 O2'         0.1373   -0.0577    2.0407 O.3       1 ACP        -0.2728
     21 C1'         1.3733    1.5427    0.6747 C.3       1 ACP         0.2693
     22 N9          0.4520    2.5240    0.1767 N.pl3     1 ACP        -0.3222
     23 C8          0.5793    3.3338   -1.1209 C.ar      1 ACP         0.1640
     24 N7         -0.4807    4.1508   -1.2458 N.2       1 ACP        -0.1640
     25 C5         -1.1921    3.8572   -0.1126 C.ar      1 ACP         0.0820
     26 C6         -2.4855    4.5203    0.2163 C.ar      1 ACP         0.1640
     27 N6         -2.9873    5.4319   -0.6020 N.pl3     1 ACP        -0.4916
     28 N1         -3.0414    4.1119    1.3596 N.pl3     1 ACP        -0.4390
     29 C2         -2.4169    3.1071    2.1904 C.ar      1 ACP         0.5691
     30 N3         -1.2928    2.5191    1.9210 N.ar      1 ACP        -0.4283
     31 C4         -0.7202    2.9326    0.7534 C.ar      1 ACP         0.2226
     32 HOG3        1.5826    3.5224   -7.2665 H         1 ACP         0.2010
     33 H3B1       -0.4753    0.3047   -7.4056 H         1 ACP        -0.0393
     34 H3B2       -0.6818    0.0150   -5.6759 H         1 ACP        -0.0393
     35 H5'1        1.3500    0.2325   -2.1560 H         1 ACP        -0.0393
     36 H5'2        2.1267   -1.3683   -2.0444 H         1 ACP        -0.0393
     37 H4'         3.8046   -0.1390   -0.4011 H         1 ACP        -0.0393
     38 H3'         1.6787   -1.7627    0.2719 H         1 ACP        -0.0393
     39 HO3'        2.2231   -1.2979    2.3952 H         1 ACP         0.2010
     40 H2'         0.0002   -0.0084   -0.0014 H         1 ACP        -0.0393
     41 HO2'       -0.1554   -0.9852    2.0577 H         1 ACP         0.2010
     42 H1'         1.7718    1.9211    1.6015 H         1 ACP        -0.0393
     43 H8          1.3565    3.3309   -1.8916 H         1 ACP         0.0000
     44 HN61       -2.4952    5.6785   -1.4487 H         1 ACP         0.2048
     45 HN62       -3.8637    5.8828   -0.3819 H         1 ACP         0.2048
     46 H2         -2.9911    2.8734    3.1000 H         1 ACP        -0.1292
     47 H47        -3.9253    4.5332    1.6302 H         1 ACP         0.2048
@<TRIPOS>BOND
     1    1    2 2
     2    1    3 1
     3    1    4 1
     4    1    8 1
     5    4   32 1
     6    5    6 2
     7    5    7 1
     8    5    8 1
     9    5   12 1
    10    8   33 1
    11    8   34 1
    12    9   10 2
    13    9   11 1
    14    9   12 1
    15    9   13 1
    16   13   14 1
    17   14   15 1
    18   14   35 1
    19   14   36 1
    20   15   16 1
    21   15   17 1
    22   15   37 1
    23   16   21 1
    24   17   18 1
    25   17   19 1
    26   17   38 1
    27   18   39 1
    28   19   20 1
    29   19   21 1
    30   19   40 1
    31   20   41 1
    32   21   22 1
    33   21   42 1
    34   22   23 ar
    35   22   31 ar
    36   23   24 ar
    37   23   43 1
    38   24   25 ar
    39   25   26 ar
    40   25   31 ar
    41   26   27 1
    42   26   28 ar
    43   27   44 1
    44   27   45 1
    45   28   29 ar
    46   28   47 1
    47   29   30 ar
    48   29   46 1
    49   30   31 ar
@<TRIPOS>SUBSTRUCTURE
     1 ACP         1 GROUP 0 A     ****
@<TRIPOS>MOLECULE
[[5-(6-amino-1,8-dihydropurine-6,8-diylium-7-id-9-yl)-3,4-dihydroxy-tetrahydrofuran-2-yl]methoxy-oxido-phosphoryl]oxy-[[hydroxy(oxido)phosphoryl]methyl]phosphinate
   47    49     1     0     0
SMALL
USER_CHARGES

@<TRIPOS>ATOM
      1 PG          0.3950   -0.2077   -6.9466 P.3       1 ACP        -1.2804
      2 O1G         0.5994    0.6278   -5.7045 O.co2     1 ACP         0.3195
      3 O2G        -0.9367   -0.2774   -7.6579 O.co2     1 ACP         0.3195
      4 O3G         1.5675    0.1329   -8.0278 O.3       1 ACP         0.0326
      5 PB          2.5989   -2.4004   -5.9926 P.3       1 ACP        -1.2804
      6 O1B         3.5539   -2.0013   -7.0932 O.co2     1 ACP         0.3195
      7 O2B         2.5311   -3.8130   -5.4596 O.co2     1 ACP         0.3195
      8 C3B         0.8968   -1.9394   -6.5442 C.3       1 ACP         0.8942
      9 PA          3.9989   -0.9668   -3.8036 P.3       1 ACP        -1.1062
     10 O1A         5.0247   -0.2515   -4.6555 O.co2     1 ACP         0.3195
     11 O2A         4.3843   -2.1858   -2.9937 O.co2     1 ACP         0.3195
     12 O3A         2.7242   -1.3549   -4.7479 O.3       1 ACP         0.4672
     13 O5'         3.2883    0.1336   -2.8242 O.3       1 ACP         0.1618
     14 C5'         2.2816   -0.2918   -1.9206 C.3       1 ACP         0.1504
     15 C4'         2.7248    0.0226   -0.4980 C.3       1 ACP         0.1111
     16 O4'         2.4697    1.4219   -0.2462 O.3       1 ACP        -0.1436
     17 C3'         1.9404   -0.7419    0.5596 C.3       1 ACP         0.1111
     18 O3'         2.7418   -0.8086    1.7389 O.3       1 ACP        -0.2728
     19 C2'         0.7477    0.1630    0.7858 C.3       1 ACP         0.1111
     20 O2'         0.1373   -0.0577    2.0407 O.3       1 ACP        -0.2728
     21 C1'         1.3733    1.5427    0.6747 C.3       1 ACP         0.2693
     22 N9          0.4520    2.5240    0.1767 N.pl3     1 ACP        -0.3222
     23 C8          0.1798    2.8712   -1.2933 C.ar      1 ACP         0.1640
     24 N7         -0.7494    3.8400   -1.3610 N.2       1 ACP        -0.1640
     25 C5         -1.0173    4.0603   -0.0358 C.ar      1 ACP         0.0820
     26 C6         -2.0105    5.0717    0.4241 C.ar      1 ACP         0.1640
     27 N6         -2.6723    5.7982   -0.4628 N.pl3     1 ACP        -0.4916
     28 N1         -2.1445    5.1522    1.7502 N.pl3     1 ACP        -0.4390
     29 C2         -1.3755    4.3143    2.6426 C.ar      1 ACP         0.5691
     30 N3         -0.5075    3.4292    2.2616 N.ar      1 ACP        -0.4283
     31 C4         -0.3667    3.3425    0.9070 C.ar      1 ACP         0.2226
     32 HOG3        1.6487    1.0540   -8.3552 H         1 ACP         0.2010
     33 H3B1        0.6900   -2.5315   -7.4426 H         1 ACP        -0.0393
     34 H3B2        0.2170   -2.2879   -5.7588 H         1 ACP        -0.0393
     35 H5'1        1.3500    0.2325   -2.1560 H         1 ACP        -0.0393
     36 H5'2        2.1267   -1.3683   -2.0444 H         1 ACP        -0.0393
     37 H4'         3.8046   -0.1390   -0.4011 H         1 ACP        -0.0393
     38 H3'         1.6787   -1.7627    0.2719 H         1 ACP        -0.0393
     39 HO3'        3.5553   -1.2733    1.4913 H         1 ACP         0.2010
     40 H2'         0.0002   -0.0084   -0.0014 H         1 ACP        -0.0393
     41 HO2'       -0.6132    0.5577    2.1063 H         1 ACP         0.2010
     42 H1'         1.7718    1.9211    1.6015 H         1 ACP        -0.0393
     43 H8          0.6089    2.4651   -2.2147 H         1 ACP         0.0000
     44 HN61       -2.5055    5.6680   -1.4503 H         1 ACP         0.2048
     45 HN62       -3.3462    6.4841   -0.1542 H         1 ACP         0.2048
     46 H2         -1.5932    4.4937    3.7066 H         1 ACP        -0.1292
     47 H47        -2.8098    5.8270    2.1160 H         1 ACP         0.2048
@<TRIPOS>BOND
     1    1    2 2
     2    1    3 1
     3    1    4 1
     4    1    8 1
     5    4   32 1
     6    5    6 2
     7    5    7 1
     8    5    8 1
     9    5   12 1
    10    8   33 1
    11    8   34 1
    12    9   10 2
    13    9   11 1
    14    9   12 1
    15    9   13 1
    16   13   14 1
    17   14   15 1
    18   14   35 1
    19   14   36 1
    20   15   16 1
    21   15   17 1
    22   15   37 1
    23   16   21 1
    24   17   18 1
    25   17   19 1
    26   17   38 1
    27   18   39 1
    28   19   20 1
    29   19   21 1
    30   19   40 1
    31   20   41 1
    32   21   22 1
    33   21   42 1
    34   22   23 ar
    35   22   31 ar
    36   23   24 ar
    37   23   43 1
    38   24   25 ar
    39   25   26 ar
    40   25   31 ar
    41   26   27 1
    42   26   28 ar
    43   27   44 1
    44   27   45 1
    45   28   29 ar
    46   28   47 1
    47   29   30 ar
    48   29   46 1
    49   30   31 ar
@<TRIPOS>SUBSTRUCTURE
     1 ACP         1 GROUP 0 A     ****
@<TRIPOS>MOLECULE
[[5-(6-amino-1,8-dihydropurine-6,8-diylium-7-id-9-yl)-3,4-dihydroxy-tetrahydrofuran-2-yl]methoxy-oxido-phosphoryl]oxy-[[hydroxy(oxido)phosphoryl]methyl]phosphinate
   47    49     1     0     0
SMALL
USER_CHARGES

@<TRIPOS>ATOM
      1 PG         -3.8467   -5.8189   -1.7501 P.3       1 ACP        -1.2804
      2 O1G        -2.4874   -5.2451   -1.4248 O.co2     1 ACP         0.3195
      3 O2G        -4.6902   -5.2914   -2.8879 O.co2     1 ACP         0.3195
      4 O3G        -3.7359   -7.4418   -1.8674 O.3       1 ACP         0.0326
      5 PB         -4.4146   -6.5790    1.3604 P.3       1 ACP        -1.2804
      6 O1B        -4.3370   -8.0597    1.0704 O.co2     1 ACP         0.3195
      7 O2B        -5.3029   -6.0176    2.4466 O.co2     1 ACP         0.3195
      8 C3B        -4.8721   -5.7308   -0.2162 C.3       1 ACP         0.8942
      9 PA         -1.7138   -6.3356    2.5657 P.3       1 ACP        -1.1062
     10 O1A        -1.2348   -7.7404    2.2712 O.co2     1 ACP         0.3195
     11 O2A        -2.1612   -5.9499    3.9591 O.co2     1 ACP         0.3195
     12 O3A        -2.9111   -5.9684    1.5177 O.3       1 ACP         0.4672
     13 O5'        -0.5697   -5.2855    2.0524 O.3       1 ACP         0.1618
     14 C5'        -0.7840   -3.8935    2.2172 C.3       1 ACP         0.1504
     15 C4'        -0.0724   -3.1466    1.1027 C.3       1 ACP         0.1111
     16 O4'        -0.8674   -3.1929   -0.0945 O.3       1 ACP        -0.1436
     17 C3'         0.1338   -1.6715    1.4027 C.3       1 ACP         0.1111
     18 O3'         1.2893   -1.4445    2.1808 O.3       1 ACP        -0.2728
     19 C2'         0.2158   -1.0724    0.0128 C.3       1 ACP         0.1111
     20 O2'         1.5141   -1.2448   -0.5513 O.3       1 ACP        -0.2728
     21 C1'        -0.7897   -1.9176   -0.7583 C.3       1 ACP         0.2693
     22 N9         -2.1040   -1.3333   -0.7704 N.pl3     1 ACP        -0.3222
     23 C8         -3.2124   -1.5345    0.2719 C.ar      1 ACP         0.1640
     24 N7         -4.2964   -0.8234   -0.0828 N.2       1 ACP        -0.1640
     25 C5         -3.8754   -0.2386   -1.2478 C.ar      1 ACP         0.0820
     26 C6         -4.7432    0.6719   -2.0470 C.ar      1 ACP         0.1640
     27 N6         -5.9725    0.9415   -1.6366 N.pl3     1 ACP        -0.4916
     28 N1         -4.1703    1.1517   -3.1536 N.pl3     1 ACP        -0.4390
     29 C2         -2.8174    0.7994   -3.5215 C.ar      1 ACP         0.5691
     30 N3         -2.0475    0.0097   -2.8393 N.ar      1 ACP        -0.4283
     31 C4         -2.6278   -0.4836   -1.7071 C.ar      1 ACP         0.2226
     32 HOG3       -3.1346   -7.8220   -2.5427 H         1 ACP         0.2010
     33 H3B1       -5.8646   -6.1035   -0.4930 H         1 ACP        -0.0393
     34 H3B2       -4.9780   -4.6683    0.0291 H         1 ACP        -0.0393
     35 H5'1       -1.8599   -3.6946    2.1849 H         1 ACP        -0.0393
     36 H5'2       -0.3934   -3.5881    3.1930 H         1 ACP        -0.0393
     37 H4'         0.8883   -3.6447    0.8783 H         1 ACP        -0.0393
     38 H3'        -0.7368   -1.2359    1.9871 H         1 ACP        -0.0393
     39 HO3'        1.3407   -0.4871    2.3218 H         1 ACP         0.2010
     40 H2'        -0.0343   -0.0280    0.0196 H         1 ACP        -0.0393
     41 HO2'        2.1443   -0.7955    0.0378 H         1 ACP         0.2010
     42 H1'        -0.5175   -2.1046   -1.7826 H         1 ACP        -0.0393
     43 H8         -3.2310   -2.1319    1.1889 H         1 ACP         0.0000
     44 HN61       -6.3230    0.5316   -0.7829 H         1 ACP         0.2048
     45 HN62       -6.5628    1.5584   -2.1760 H         1 ACP         0.2048
     46 H2         -2.4822    1.2710   -4.4579 H         1 ACP        -0.1292
     47 H47        -4.7200    1.7780   -3.7346 H         1 ACP         0.2048
@<TRIPOS>BOND
     1    1    2 2
     2    1    3 1
     3    1    4 1
     4    1    8 1
     5    4   32 1
     6    5    6 2
     7    5    7 1
     8    5    8 1
     9    5   12 1
    10    8   33 1
    11    8   34 1
    12    9   10 2
    13    9   11 1
    14    9   12 1
    15    9   13 1
    16   13   14 1
    17   14   15 1
    18   14   35 1
    19   14   36 1
    20   15   16 1
    21   15   17 1
    22   15   37 1
    23   16   21 1
    24   17   18 1
    25   17   19 1
    26   17   38 1
    27   18   39 1
    28   19   20 1
    29   19   21 1
    30   19   40 1
    31   20   41 1
    32   21   22 1
    33   21   42 1
    34   22   23 ar
    35   22   31 ar
    36   23   24 ar
    37   23   43 1
    38   24   25 ar
    39   25   26 ar
    40   25   31 ar
    41   26   27 1
    42   26   28 ar
    43   27   44 1
    44   27   45 1
    45   28   29 ar
    46   28   47 1
    47   29   30 ar
    48   29   46 1
    49   30   31 ar
@<TRIPOS>SUBSTRUCTURE
     1 ACP         1 GROUP 0 A     ****
@<TRIPOS>MOLECULE
[[5-(6-amino-1,8-dihydropurine-6,8-diylium-7-id-9-yl)-3,4-dihydroxy-tetrahydrofuran-2-yl]methoxy-oxido-phosphoryl]oxy-[[hydroxy(oxido)phosphoryl]methyl]phosphinate
   47    49     1     0     0
SMALL
USER_CHARGES

@<TRIPOS>ATOM
      1 PG          1.9235   -1.2778   -7.1863 P.3       1 ACP        -1.2804
      2 O1G         1.9559   -0.2479   -8.2913 O.co2     1 ACP         0.3195
      3 O2G         2.3211   -2.7174   -7.4177 O.co2     1 ACP         0.3195
      4 O3G         2.7183   -0.7007   -5.8843 O.3       1 ACP         0.0326
      5 PB         -0.3016   -2.3895   -5.0915 P.3       1 ACP        -1.2804
      6 O1B        -0.1046   -3.8147   -5.5528 O.co2     1 ACP         0.3195
      7 O2B        -1.6341   -1.8839   -4.5885 O.co2     1 ACP         0.3195
      8 C3B         0.2176   -1.2836   -6.4776 C.3       1 ACP         0.8942
      9 PA          1.2676   -2.6330   -2.5845 P.3       1 ACP        -1.1062
     10 O1A         1.8014   -4.0298   -2.8163 O.co2     1 ACP         0.3195
     11 O2A         0.1253   -2.3943   -1.6209 O.co2     1 ACP         0.3195
     12 O3A         0.8686   -1.9867   -4.0302 O.3       1 ACP         0.4672
     13 O5'         2.5237   -1.6631   -2.1889 O.3       1 ACP         0.1618
     14 C5'         2.2816   -0.2918   -1.9206 C.3       1 ACP         0.1504
     15 C4'         2.7248    0.0226   -0.4980 C.3       1 ACP         0.1111
     16 O4'         2.4697    1.4219   -0.2462 O.3       1 ACP        -0.1436
     17 C3'         1.9404   -0.7419    0.5596 C.3       1 ACP         0.1111
     18 O3'         2.7418   -0.8086    1.7389 O.3       1 ACP        -0.2728
     19 C2'         0.7477    0.1630    0.7858 C.3       1 ACP         0.1111
     20 O2'         0.1373   -0.0577    2.0407 O.3       1 ACP        -0.2728
     21 C1'         1.3733    1.5427    0.6747 C.3       1 ACP         0.2693
     22 N9          0.4520    2.5240    0.1767 N.pl3     1 ACP        -0.3222
     23 C8          0.1798    2.8712   -1.2933 C.ar      1 ACP         0.1640
     24 N7         -0.7494    3.8400   -1.3610 N.2       1 ACP        -0.1640
     25 C5         -1.0173    4.0603   -0.0358 C.ar      1 ACP         0.0820
     26 C6         -2.0105    5.0717    0.4241 C.ar      1 ACP         0.1640
     27 N6         -2.6723    5.7982   -0.4628 N.pl3     1 ACP        -0.4916
     28 N1         -2.1445    5.1522    1.7502 N.pl3     1 ACP        -0.4390
     29 C2         -1.3755    4.3143    2.6426 C.ar      1 ACP         0.5691
     30 N3         -0.5075    3.4292    2.2616 N.ar      1 ACP        -0.4283
     31 C4         -0.3667    3.3425    0.9070 C.ar      1 ACP         0.2226
     32 HOG3        3.6657   -0.4656   -5.9809 H         1 ACP         0.2010
     33 H3B1       -0.4575   -1.4956   -7.3141 H         1 ACP        -0.0393
     34 H3B2        0.0138   -0.2602   -6.1436 H         1 ACP        -0.0393
     35 H5'1        2.8429    0.3140   -2.6391 H         1 ACP        -0.0393
     36 H5'2        1.2125   -0.0906   -2.0420 H         1 ACP        -0.0393
     37 H4'         3.8046   -0.1390   -0.4011 H         1 ACP        -0.0393
     38 H3'         1.6787   -1.7627    0.2719 H         1 ACP        -0.0393
     39 HO3'        2.2231   -1.2979    2.3952 H         1 ACP         0.2010
     40 H2'         0.0002   -0.0084   -0.0014 H         1 ACP        -0.0393
     41 HO2'       -0.6132    0.5577    2.1063 H         1 ACP         0.2010
     42 H1'         1.7718    1.9211    1.6015 H         1 ACP        -0.0393
     43 H8          0.6089    2.4651   -2.2147 H         1 ACP         0.0000
     44 HN61       -2.5055    5.6680   -1.4503 H         1 ACP         0.2048
     45 HN62       -3.3462    6.4841   -0.1542 H         1 ACP         0.2048
     46 H2         -1.5932    4.4937    3.7066 H         1 ACP        -0.1292
     47 H47        -2.8098    5.8270    2.1160 H         1 ACP         0.2048
@<TRIPOS>BOND
     1    1    2 2
     2    1    3 1
     3    1    4 1
     4    1    8 1
     5    4   32 1
     6    5    6 2
     7    5    7 1
     8    5    8 1
     9    5   12 1
    10    8   33 1
    11    8   34 1
    12    9   10 2
    13    9   11 1
    14    9   12 1
    15    9   13 1
    16   13   14 1
    17   14   15 1
    18   14   35 1
    19   14   36 1
    20   15   16 1
    21   15   17 1
    22   15   37 1
    23   16   21 1
    24   17   18 1
    25   17   19 1
    26   17   38 1
    27   18   39 1
    28   19   20 1
    29   19   21 1
    30   19   40 1
    31   20   41 1
    32   21   22 1
    33   21   42 1
    34   22   23 ar
    35   22   31 ar
    36   23   24 ar
    37   23   43 1
    38   24   25 ar
    39   25   26 ar
    40   25   31 ar
    41   26   27 1
    42   26   28 ar
    43   27   44 1
    44   27   45 1
    45   28   29 ar
    46   28   47 1
    47   29   30 ar
    48   29   46 1
    49   30   31 ar
@<TRIPOS>SUBSTRUCTURE
     1 ACP         1 GROUP 0 A     ****
@<TRIPOS>MOLECULE
[[5-(6-amino-1,8-dihydropurine-6,8-diylium-7-id-9-yl)-3,4-dihydroxy-tetrahydrofuran-2-yl]methoxy-oxido-phosphoryl]oxy-[[hydroxy(oxido)phosphoryl]methyl]phosphinate
   47    49     1     0     0
SMALL
USER_CHARGES

@<TRIPOS>ATOM
      1 PG         -0.0876   -0.3958   -7.8972 P.3       1 ACP        -1.2804
      2 O1G        -1.3147   -1.1016   -8.4254 O.co2     1 ACP         0.3195
      3 O2G         1.2656   -1.0668   -7.8460 O.co2     1 ACP         0.3195
      4 O3G         0.0570    1.0568   -8.6244 O.3       1 ACP         0.0326
      5 PB          0.7311    1.1214   -5.1398 P.3       1 ACP        -1.2804
      6 O1B         0.0460    1.4262   -3.8282 O.co2     1 ACP         0.3195
      7 O2B         1.3387    2.2048   -6.0008 O.co2     1 ACP         0.3195
      8 C3B        -0.4747    0.1964   -6.1908 C.3       1 ACP         0.8942
      9 PA          3.3324   -0.0529   -4.3266 P.3       1 ACP        -1.1062
     10 O1A         4.1264    0.9964   -5.0738 O.co2     1 ACP         0.3195
     11 O2A         3.8347   -1.4774   -4.2320 O.co2     1 ACP         0.3195
     12 O3A         1.8151   -0.0782   -4.9299 O.3       1 ACP         0.4672
     13 O5'         3.0198    0.5138   -2.8245 O.3       1 ACP         0.1618
     14 C5'         2.2816   -0.2918   -1.9206 C.3       1 ACP         0.1504
     15 C4'         2.7248    0.0226   -0.4980 C.3       1 ACP         0.1111
     16 O4'         2.4697    1.4219   -0.2462 O.3       1 ACP        -0.1436
     17 C3'         1.9404   -0.7419    0.5596 C.3       1 ACP         0.1111
     18 O3'         2.7418   -0.8086    1.7389 O.3       1 ACP        -0.2728
     19 C2'         0.7477    0.1630    0.7858 C.3       1 ACP         0.1111
     20 O2'         0.1373   -0.0577    2.0407 O.3       1 ACP        -0.2728
     21 C1'         1.3733    1.5427    0.6747 C.3       1 ACP         0.2693
     22 N9          0.4520    2.5240    0.1767 N.pl3     1 ACP        -0.3222
     23 C8          0.5793    3.3338   -1.1209 C.ar      1 ACP         0.1640
     24 N7         -0.4807    4.1508   -1.2458 N.2       1 ACP        -0.1640
     25 C5         -1.1921    3.8572   -0.1126 C.ar      1 ACP         0.0820
     26 C6         -2.4855    4.5203    0.2163 C.ar      1 ACP         0.1640
     27 N6         -2.9873    5.4319   -0.6020 N.pl3     1 ACP        -0.4916
     28 N1         -3.0414    4.1119    1.3596 N.pl3     1 ACP        -0.4390
     29 C2         -2.4169    3.1071    2.1904 C.ar      1 ACP         0.5691
     30 N3         -1.2928    2.5191    1.9210 N.ar      1 ACP        -0.4283
     31 C4         -0.7202    2.9326    0.7534 C.ar      1 ACP         0.2226
     32 HOG3        0.1521    1.0840   -9.6003 H         1 ACP         0.2010
     33 H3B1       -0.7666   -0.6923   -5.6204 H         1 ACP        -0.0393
     34 H3B2       -1.3596    0.8369   -6.2748 H         1 ACP        -0.0393
     35 H5'1        1.2153   -0.0781   -2.0454 H         1 ACP        -0.0393
     36 H5'2        2.4645   -1.3454   -2.1547 H         1 ACP        -0.0393
     37 H4'         3.8046   -0.1390   -0.4011 H         1 ACP        -0.0393
     38 H3'         1.6787   -1.7627    0.2719 H         1 ACP        -0.0393
     39 HO3'        2.2231   -1.2979    2.3952 H         1 ACP         0.2010
     40 H2'         0.0002   -0.0084   -0.0014 H         1 ACP        -0.0393
     41 HO2'       -0.1554   -0.9852    2.0577 H         1 ACP         0.2010
     42 H1'         1.7718    1.9211    1.6015 H         1 ACP        -0.0393
     43 H8          1.3565    3.3309   -1.8916 H         1 ACP         0.0000
     44 HN61       -2.4952    5.6785   -1.4487 H         1 ACP         0.2048
     45 HN62       -3.8637    5.8828   -0.3819 H         1 ACP         0.2048
     46 H2         -2.9911    2.8734    3.1000 H         1 ACP        -0.1292
     47 H47        -3.9253    4.5332    1.6302 H         1 ACP         0.2048
@<TRIPOS>BOND
     1    1    2 2
     2    1    3 1
     3    1    4 1
     4    1    8 1
     5    4   32 1
     6    5    6 2
     7    5    7 1
     8    5    8 1
     9    5   12 1
    10    8   33 1
    11    8   34 1
    12    9   10 2
    13    9   11 1
    14    9   12 1
    15    9   13 1
    16   13   14 1
    17   14   15 1
    18   14   35 1
    19   14   36 1
    20   15   16 1
    21   15   17 1
    22   15   37 1
    23   16   21 1
    24   17   18 1
    25   17   19 1
    26   17   38 1
    27   18   39 1
    28   19   20 1
    29   19   21 1
    30   19   40 1
    31   20   41 1
    32   21   22 1
    33   21   42 1
    34   22   23 ar
    35   22   31 ar
    36   23   24 ar
    37   23   43 1
    38   24   25 ar
    39   25   26 ar
    40   25   31 ar
    41   26   27 1
    42   26   28 ar
    43   27   44 1
    44   27   45 1
    45   28   29 ar
    46   28   47 1
    47   29   30 ar
    48   29   46 1
    49   30   31 ar
@<TRIPOS>SUBSTRUCTURE
     1 ACP         1 GROUP 0 A     ****
@<TRIPOS>MOLECULE
[[5-(6-amino-1,8-dihydropurine-6,8-diylium-7-id-9-yl)-3,4-dihydroxy-tetrahydrofuran-2-yl]methoxy-oxido-phosphoryl]oxy-[[hydroxy(oxido)phosphoryl]methyl]phosphinate
   47    49     1     0     0
SMALL
USER_CHARGES

@<TRIPOS>ATOM
      1 PG          1.8810   -2.2098   -6.9194 P.3       1 ACP        -1.2804
      2 O1G         2.5385   -1.4807   -8.0679 O.co2     1 ACP         0.3195
      3 O2G         1.0648   -1.4886   -5.8717 O.co2     1 ACP         0.3195
      4 O3G         1.0240   -3.4710   -7.4980 O.3       1 ACP         0.0326
      5 PB          4.6694   -2.3695   -5.2537 P.3       1 ACP        -1.2804
      6 O1B         5.4265   -1.6480   -6.3441 O.co2     1 ACP         0.3195
      7 O2B         5.3234   -3.4092   -4.3731 O.co2     1 ACP         0.3195
      8 C3B         3.1950   -3.1617   -6.0364 C.3       1 ACP         0.8942
      9 PA          4.4357   -0.0473   -3.4208 P.3       1 ACP        -1.1062
     10 O1A         5.0077    1.0009   -4.3502 O.co2     1 ACP         0.3195
     11 O2A         5.2684   -0.6124   -2.2904 O.co2     1 ACP         0.3195
     12 O3A         3.8786   -1.2888   -4.3238 O.3       1 ACP         0.4672
     13 O5'         3.0198    0.5138   -2.8245 O.3       1 ACP         0.1618
     14 C5'         2.2816   -0.2918   -1.9206 C.3       1 ACP         0.1504
     15 C4'         2.7248    0.0226   -0.4980 C.3       1 ACP         0.1111
     16 O4'         2.4697    1.4219   -0.2462 O.3       1 ACP        -0.1436
     17 C3'         1.9404   -0.7419    0.5596 C.3       1 ACP         0.1111
     18 O3'         2.7418   -0.8086    1.7389 O.3       1 ACP        -0.2728
     19 C2'         0.7477    0.1630    0.7858 C.3       1 ACP         0.1111
     20 O2'         0.1373   -0.0577    2.0407 O.3       1 ACP        -0.2728
     21 C1'         1.3733    1.5427    0.6747 C.3       1 ACP         0.2693
     22 N9          0.4520    2.5240    0.1767 N.pl3     1 ACP        -0.3222
     23 C8          0.1798    2.8712   -1.2933 C.ar      1 ACP         0.1640
     24 N7         -0.7494    3.8400   -1.3610 N.2       1 ACP        -0.1640
     25 C5         -1.0173    4.0603   -0.0358 C.ar      1 ACP         0.0820
     26 C6         -2.0105    5.0717    0.4241 C.ar      1 ACP         0.1640
     27 N6         -2.6723    5.7982   -0.4628 N.pl3     1 ACP        -0.4916
     28 N1         -2.1445    5.1522    1.7502 N.pl3     1 ACP        -0.4390
     29 C2         -1.3755    4.3143    2.6426 C.ar      1 ACP         0.5691
     30 N3         -0.5075    3.4292    2.2616 N.ar      1 ACP        -0.4283
     31 C4         -0.3667    3.3425    0.9070 C.ar      1 ACP         0.2226
     32 HOG3        0.2964   -3.2912   -8.1308 H         1 ACP         0.2010
     33 H3B1        3.5801   -3.8893   -6.7595 H         1 ACP        -0.0393
     34 H3B2        2.6933   -3.7243   -5.2413 H         1 ACP        -0.0393
     35 H5'1        1.2153   -0.0781   -2.0454 H         1 ACP        -0.0393
     36 H5'2        2.4645   -1.3454   -2.1547 H         1 ACP        -0.0393
     37 H4'         3.8046   -0.1390   -0.4011 H         1 ACP        -0.0393
     38 H3'         1.6787   -1.7627    0.2719 H         1 ACP        -0.0393
     39 HO3'        2.2231   -1.2979    2.3952 H         1 ACP         0.2010
     40 H2'         0.0002   -0.0084   -0.0014 H         1 ACP        -0.0393
     41 HO2'       -0.6132    0.5577    2.1063 H         1 ACP         0.2010
     42 H1'         1.7718    1.9211    1.6015 H         1 ACP        -0.0393
     43 H8          0.6089    2.4651   -2.2147 H         1 ACP         0.0000
     44 HN61       -2.5055    5.6680   -1.4503 H         1 ACP         0.2048
     45 HN62       -3.3462    6.4841   -0.1542 H         1 ACP         0.2048
     46 H2         -1.5932    4.4937    3.7066 H         1 ACP        -0.1292
     47 H47        -2.8098    5.8270    2.1160 H         1 ACP         0.2048
@<TRIPOS>BOND
     1    1    2 2
     2    1    3 1
     3    1    4 1
     4    1    8 1
     5    4   32 1
     6    5    6 2
     7    5    7 1
     8    5    8 1
     9    5   12 1
    10    8   33 1
    11    8   34 1
    12    9   10 2
    13    9   11 1
    14    9   12 1
    15    9   13 1
    16   13   14 1
    17   14   15 1
    18   14   35 1
    19   14   36 1
    20   15   16 1
    21   15   17 1
    22   15   37 1
    23   16   21 1
    24   17   18 1
    25   17   19 1
    26   17   38 1
    27   18   39 1
    28   19   20 1
    29   19   21 1
    30   19   40 1
    31   20   41 1
    32   21   22 1
    33   21   42 1
    34   22   23 ar
    35   22   31 ar
    36   23   24 ar
    37   23   43 1
    38   24   25 ar
    39   25   26 ar
    40   25   31 ar
    41   26   27 1
    42   26   28 ar
    43   27   44 1
    44   27   45 1
    45   28   29 ar
    46   28   47 1
    47   29   30 ar
    48   29   46 1
    49   30   31 ar
@<TRIPOS>SUBSTRUCTURE
     1 ACP         1 GROUP 0 A     ****
@<TRIPOS>MOLECULE
[[5-(6-amino-1,8-dihydropurine-6,8-diylium-7-id-9-yl)-3,4-dihydroxy-tetrahydrofuran-2-yl]methoxy-oxido-phosphoryl]oxy-[[hydroxy(oxido)phosphoryl]methyl]phosphinate
   47    49     1     0     0
SMALL
USER_CHARGES

@<TRIPOS>ATOM
      1 PG          0.2307    0.0322   -6.6611 P.3       1 ACP        -1.2804
      2 O1G        -0.3871    1.3432   -7.0881 O.co2     1 ACP         0.3195
      3 O2G        -0.1442   -0.6482   -5.3646 O.co2     1 ACP         0.3195
      4 O3G         0.1243   -1.0409   -7.8846 O.3       1 ACP         0.0326
      5 PB          3.2480   -1.0895   -6.1991 P.3       1 ACP        -1.2804
      6 O1B         4.6432   -0.5224   -6.3192 O.co2     1 ACP         0.3195
      7 O2B         2.8203   -2.3367   -6.9379 O.co2     1 ACP         0.3195
      8 C3B         2.0646    0.2534   -6.6578 C.3       1 ACP         0.8942
      9 PA          3.5286   -2.0718   -3.4129 P.3       1 ACP        -1.1062
     10 O1A         4.8908   -1.4784   -3.1267 O.co2     1 ACP         0.3195
     11 O2A         3.3785   -3.5472   -3.7151 O.co2     1 ACP         0.3195
     12 O3A         2.8404   -1.2225   -4.6261 O.3       1 ACP         0.4672
     13 O5'         2.5237   -1.6631   -2.1889 O.3       1 ACP         0.1618
     14 C5'         2.2816   -0.2918   -1.9206 C.3       1 ACP         0.1504
     15 C4'         2.7248    0.0226   -0.4980 C.3       1 ACP         0.1111
     16 O4'         2.4697    1.4219   -0.2462 O.3       1 ACP        -0.1436
     17 C3'         1.9404   -0.7419    0.5596 C.3       1 ACP         0.1111
     18 O3'         2.7418   -0.8086    1.7389 O.3       1 ACP        -0.2728
     19 C2'         0.7477    0.1630    0.7858 C.3       1 ACP         0.1111
     20 O2'         0.1373   -0.0577    2.0407 O.3       1 ACP        -0.2728
     21 C1'         1.3733    1.5427    0.6747 C.3       1 ACP         0.2693
     22 N9          0.4520    2.5240    0.1767 N.pl3     1 ACP        -0.3222
     23 C8          0.1798    2.8712   -1.2933 C.ar      1 ACP         0.1640
     24 N7         -0.7494    3.8400   -1.3610 N.2       1 ACP        -0.1640
     25 C5         -1.0173    4.0603   -0.0358 C.ar      1 ACP         0.0820
     26 C6         -2.0105    5.0717    0.4241 C.ar      1 ACP         0.1640
     27 N6         -2.6723    5.7982   -0.4628 N.pl3     1 ACP        -0.4916
     28 N1         -2.1445    5.1522    1.7502 N.pl3     1 ACP        -0.4390
     29 C2         -1.3755    4.3143    2.6426 C.ar      1 ACP         0.5691
     30 N3         -0.5075    3.4292    2.2616 N.ar      1 ACP        -0.4283
     31 C4         -0.3667    3.3425    0.9070 C.ar      1 ACP         0.2226
     32 HOG3       -0.7656   -1.2803   -8.2208 H         1 ACP         0.2010
     33 H3B1        2.2678    1.0912   -5.9816 H         1 ACP        -0.0393
     34 H3B2        2.3433    0.5730   -7.6681 H         1 ACP        -0.0393
     35 H5'1        2.8429    0.3140   -2.6391 H         1 ACP        -0.0393
     36 H5'2        1.2125   -0.0906   -2.0420 H         1 ACP        -0.0393
     37 H4'         3.8046   -0.1390   -0.4011 H         1 ACP        -0.0393
     38 H3'         1.6787   -1.7627    0.2719 H         1 ACP        -0.0393
     39 HO3'        2.2231   -1.2979    2.3952 H         1 ACP         0.2010
     40 H2'         0.0002   -0.0084   -0.0014 H         1 ACP        -0.0393
     41 HO2'       -0.6132    0.5577    2.1063 H         1 ACP         0.2010
     42 H1'         1.7718    1.9211    1.6015 H         1 ACP        -0.0393
     43 H8          0.6089    2.4651   -2.2147 H         1 ACP         0.0000
     44 HN61       -2.5055    5.6680   -1.4503 H         1 ACP         0.2048
     45 HN62       -3.3462    6.4841   -0.1542 H         1 ACP         0.2048
     46 H2         -1.5932    4.4937    3.7066 H         1 ACP        -0.1292
     47 H47        -2.8098    5.8270    2.1160 H         1 ACP         0.2048
@<TRIPOS>BOND
     1    1    2 2
     2    1    3 1
     3    1    4 1
     4    1    8 1
     5    4   32 1
     6    5    6 2
     7    5    7 1
     8    5    8 1
     9    5   12 1
    10    8   33 1
    11    8   34 1
    12    9   10 2
    13    9   11 1
    14    9   12 1
    15    9   13 1
    16   13   14 1
    17   14   15 1
    18   14   35 1
    19   14   36 1
    20   15   16 1
    21   15   17 1
    22   15   37 1
    23   16   21 1
    24   17   18 1
    25   17   19 1
    26   17   38 1
    27   18   39 1
    28   19   20 1
    29   19   21 1
    30   19   40 1
    31   20   41 1
    32   21   22 1
    33   21   42 1
    34   22   23 ar
    35   22   31 ar
    36   23   24 ar
    37   23   43 1
    38   24   25 ar
    39   25   26 ar
    40   25   31 ar
    41   26   27 1
    42   26   28 ar
    43   27   44 1
    44   27   45 1
    45   28   29 ar
    46   28   47 1
    47   29   30 ar
    48   29   46 1
    49   30   31 ar
@<TRIPOS>SUBSTRUCTURE
     1 ACP         1 GROUP 0 A     ****
@<TRIPOS>MOLECULE
[[5-(6-amino-1,8-dihydropurine-6,8-diylium-7-id-9-yl)-3,4-dihydroxy-tetrahydrofuran-2-yl]methoxy-oxido-phosphoryl]oxy-[[hydroxy(oxido)phosphoryl]methyl]phosphinate
   47    49     1     0     0
SMALL
USER_CHARGES

@<TRIPOS>ATOM
      1 PG          2.1988   -4.7529   -3.4704 P.3       1 ACP        -1.2804
      2 O1G         0.7932   -4.7690   -4.0245 O.co2     1 ACP         0.3195
      3 O2G         2.5830   -3.9064   -2.2788 O.co2     1 ACP         0.3195
      4 O3G         2.7040   -6.2848   -3.2300 O.3       1 ACP         0.0326
      5 PB          3.2293   -2.7193   -5.7894 P.3       1 ACP        -1.2804
      6 O1B         1.8608   -2.6650   -6.4274 O.co2     1 ACP         0.3195
      7 O2B         4.4994   -2.5848   -6.5976 O.co2     1 ACP         0.3195
      8 C3B         3.3397   -4.3087   -4.8536 C.3       1 ACP         0.8942
      9 PA          3.0653   -0.0868   -4.4294 P.3       1 ACP        -1.1062
     10 O1A         1.6188    0.2173   -4.7536 O.co2     1 ACP         0.3195
     11 O2A         4.1847    0.5906   -5.1901 O.co2     1 ACP         0.3195
     12 O3A         3.2848   -1.7027   -4.5160 O.3       1 ACP         0.4672
     13 O5'         3.2883    0.1336   -2.8242 O.3       1 ACP         0.1618
     14 C5'         2.2816   -0.2918   -1.9206 C.3       1 ACP         0.1504
     15 C4'         2.7248    0.0226   -0.4980 C.3       1 ACP         0.1111
     16 O4'         2.4697    1.4219   -0.2462 O.3       1 ACP        -0.1436
     17 C3'         1.9404   -0.7419    0.5596 C.3       1 ACP         0.1111
     18 O3'         2.7418   -0.8086    1.7389 O.3       1 ACP        -0.2728
     19 C2'         0.7477    0.1630    0.7858 C.3       1 ACP         0.1111
     20 O2'         0.1373   -0.0577    2.0407 O.3       1 ACP        -0.2728
     21 C1'         1.3733    1.5427    0.6747 C.3       1 ACP         0.2693
     22 N9          0.4520    2.5240    0.1767 N.pl3     1 ACP        -0.3222
     23 C8          0.5793    3.3338   -1.1209 C.ar      1 ACP         0.1640
     24 N7         -0.4807    4.1508   -1.2458 N.2       1 ACP        -0.1640
     25 C5         -1.1921    3.8572   -0.1126 C.ar      1 ACP         0.0820
     26 C6         -2.4855    4.5203    0.2163 C.ar      1 ACP         0.1640
     27 N6         -2.9873    5.4319   -0.6020 N.pl3     1 ACP        -0.4916
     28 N1         -3.0414    4.1119    1.3596 N.pl3     1 ACP        -0.4390
     29 C2         -2.4169    3.1071    2.1904 C.ar      1 ACP         0.5691
     30 N3         -1.2928    2.5191    1.9210 N.ar      1 ACP        -0.4283
     31 C4         -0.7202    2.9326    0.7534 C.ar      1 ACP         0.2226
     32 HOG3        2.1968   -6.8531   -2.6120 H         1 ACP         0.2010
     33 H3B1        3.2469   -5.1120   -5.5930 H         1 ACP        -0.0393
     34 H3B2        4.3563   -4.3533   -4.4476 H         1 ACP        -0.0393
     35 H5'1        1.3500    0.2325   -2.1560 H         1 ACP        -0.0393
     36 H5'2        2.1267   -1.3683   -2.0444 H         1 ACP        -0.0393
     37 H4'         3.8046   -0.1390   -0.4011 H         1 ACP        -0.0393
     38 H3'         1.6787   -1.7627    0.2719 H         1 ACP        -0.0393
     39 HO3'        2.2231   -1.2979    2.3952 H         1 ACP         0.2010
     40 H2'         0.0002   -0.0084   -0.0014 H         1 ACP        -0.0393
     41 HO2'       -0.1554   -0.9852    2.0577 H         1 ACP         0.2010
     42 H1'         1.7718    1.9211    1.6015 H         1 ACP        -0.0393
     43 H8          1.3565    3.3309   -1.8916 H         1 ACP         0.0000
     44 HN61       -2.4952    5.6785   -1.4487 H         1 ACP         0.2048
     45 HN62       -3.8637    5.8828   -0.3819 H         1 ACP         0.2048
     46 H2         -2.9911    2.8734    3.1000 H         1 ACP        -0.1292
     47 H47        -3.9253    4.5332    1.6302 H         1 ACP         0.2048
@<TRIPOS>BOND
     1    1    2 2
     2    1    3 1
     3    1    4 1
     4    1    8 1
     5    4   32 1
     6    5    6 2
     7    5    7 1
     8    5    8 1
     9    5   12 1
    10    8   33 1
    11    8   34 1
    12    9   10 2
    13    9   11 1
    14    9   12 1
    15    9   13 1
    16   13   14 1
    17   14   15 1
    18   14   35 1
    19   14   36 1
    20   15   16 1
    21   15   17 1
    22   15   37 1
    23   16   21 1
    24   17   18 1
    25   17   19 1
    26   17   38 1
    27   18   39 1
    28   19   20 1
    29   19   21 1
    30   19   40 1
    31   20   41 1
    32   21   22 1
    33   21   42 1
    34   22   23 ar
    35   22   31 ar
    36   23   24 ar
    37   23   43 1
    38   24   25 ar
    39   25   26 ar
    40   25   31 ar
    41   26   27 1
    42   26   28 ar
    43   27   44 1
    44   27   45 1
    45   28   29 ar
    46   28   47 1
    47   29   30 ar
    48   29   46 1
    49   30   31 ar
@<TRIPOS>SUBSTRUCTURE
     1 ACP         1 GROUP 0 A     ****
@<TRIPOS>MOLECULE
[[5-(6-amino-1,8-dihydropurine-6,8-diylium-7-id-9-yl)-3,4-dihydroxy-tetrahydrofuran-2-yl]methoxy-oxido-phosphoryl]oxy-[[hydroxy(oxido)phosphoryl]methyl]phosphinate
   47    49     1     0     0
SMALL
USER_CHARGES

@<TRIPOS>ATOM
      1 PG         -0.7696   -1.5853   -5.2862 P.3       1 ACP        -1.2804
      2 O1G        -1.3462   -2.8691   -5.8357 O.co2     1 ACP         0.3195
      3 O2G        -1.6457   -0.4669   -4.7706 O.co2     1 ACP         0.3195
      4 O3G         0.3697   -1.9358   -4.1731 O.3       1 ACP         0.0326
      5 PB          1.2661    0.7115   -6.3614 P.3       1 ACP        -1.2804
      6 O1B         0.2513    1.8037   -6.1166 O.co2     1 ACP         0.3195
      7 O2B         2.2826    0.7934   -7.4769 O.co2     1 ACP         0.3195
      8 C3B         0.3342   -0.8686   -6.5824 C.3       1 ACP         0.8942
      9 PA          2.9215    1.2532   -3.9587 P.3       1 ACP        -1.1062
     10 O1A         2.0230    2.2933   -3.3258 O.co2     1 ACP         0.3195
     11 O2A         4.1836    1.6642   -4.6857 O.co2     1 ACP         0.3195
     12 O3A         2.0199    0.3363   -4.9653 O.3       1 ACP         0.4672
     13 O5'         3.2883    0.1336   -2.8242 O.3       1 ACP         0.1618
     14 C5'         2.2816   -0.2918   -1.9206 C.3       1 ACP         0.1504
     15 C4'         2.7248    0.0226   -0.4980 C.3       1 ACP         0.1111
     16 O4'         2.4697    1.4219   -0.2462 O.3       1 ACP        -0.1436
     17 C3'         1.9404   -0.7419    0.5596 C.3       1 ACP         0.1111
     18 O3'         2.7418   -0.8086    1.7389 O.3       1 ACP        -0.2728
     19 C2'         0.7477    0.1630    0.7858 C.3       1 ACP         0.1111
     20 O2'         0.1373   -0.0577    2.0407 O.3       1 ACP        -0.2728
     21 C1'         1.3733    1.5427    0.6747 C.3       1 ACP         0.2693
     22 N9          0.4520    2.5240    0.1767 N.pl3     1 ACP        -0.3222
     23 C8         -0.3054    2.4845   -1.1576 C.ar      1 ACP         0.1640
     24 N7         -1.0755    3.5806   -1.2691 N.2       1 ACP        -0.1640
     25 C5         -0.8043    4.2306   -0.0942 C.ar      1 ACP         0.0820
     26 C6         -1.4324    5.5335    0.2646 C.ar      1 ACP         0.1640
     27 N6         -2.2885    6.1055   -0.5675 N.pl3     1 ACP        -0.4916
     28 N1         -1.0537    6.0229    1.4478 N.pl3     1 ACP        -0.4390
     29 C2         -0.1096    5.3242    2.2908 C.ar      1 ACP         0.5691
     30 N3          0.4468    4.1904    1.9960 N.ar      1 ACP        -0.4283
     31 C4          0.0631    3.6855    0.7877 C.ar      1 ACP         0.2226
     32 HOG3        0.1070   -2.4522   -3.3815 H         1 ACP         0.2010
     33 H3B1       -0.2892   -0.7398   -7.4742 H         1 ACP        -0.0393
     34 H3B2        1.0831   -1.6341   -6.8142 H         1 ACP        -0.0393
     35 H5'1        1.3500    0.2325   -2.1560 H         1 ACP        -0.0393
     36 H5'2        2.1267   -1.3683   -2.0444 H         1 ACP        -0.0393
     37 H4'         3.8046   -0.1390   -0.4011 H         1 ACP        -0.0393
     38 H3'         1.6787   -1.7627    0.2719 H         1 ACP        -0.0393
     39 HO3'        2.2231   -1.2979    2.3952 H         1 ACP         0.2010
     40 H2'         0.0002   -0.0084   -0.0014 H         1 ACP        -0.0393
     41 HO2'       -0.6132    0.5577    2.1063 H         1 ACP         0.2010
     42 H1'         1.7718    1.9211    1.6015 H         1 ACP        -0.0393
     43 H8         -0.2991    1.7413   -1.9611 H         1 ACP         0.0000
     44 HN61       -2.5167    5.6603   -1.4447 H         1 ACP         0.2048
     45 HN62       -2.7159    6.9882   -0.3270 H         1 ACP         0.2048
     46 H2          0.1059    5.8491    3.2340 H         1 ACP        -0.1292
     47 H47        -1.4532    6.9099    1.7401 H         1 ACP         0.2048
@<TRIPOS>BOND
     1    1    2 2
     2    1    3 1
     3    1    4 1
     4    1    8 1
     5    4   32 1
     6    5    6 2
     7    5    7 1
     8    5    8 1
     9    5   12 1
    10    8   33 1
    11    8   34 1
    12    9   10 2
    13    9   11 1
    14    9   12 1
    15    9   13 1
    16   13   14 1
    17   14   15 1
    18   14   35 1
    19   14   36 1
    20   15   16 1
    21   15   17 1
    22   15   37 1
    23   16   21 1
    24   17   18 1
    25   17   19 1
    26   17   38 1
    27   18   39 1
    28   19   20 1
    29   19   21 1
    30   19   40 1
    31   20   41 1
    32   21   22 1
    33   21   42 1
    34   22   23 ar
    35   22   31 ar
    36   23   24 ar
    37   23   43 1
    38   24   25 ar
    39   25   26 ar
    40   25   31 ar
    41   26   27 1
    42   26   28 ar
    43   27   44 1
    44   27   45 1
    45   28   29 ar
    46   28   47 1
    47   29   30 ar
    48   29   46 1
    49   30   31 ar
@<TRIPOS>SUBSTRUCTURE
     1 ACP         1 GROUP 0 A     ****
@<TRIPOS>MOLECULE
[[5-(6-amino-1,8-dihydropurine-6,8-diylium-7-id-9-yl)-3,4-dihydroxy-tetrahydrofuran-2-yl]methoxy-oxido-phosphoryl]oxy-[[hydroxy(oxido)phosphoryl]methyl]phosphinate
   47    49     1     0     0
SMALL
USER_CHARGES

@<TRIPOS>ATOM
      1 PG         -0.9454    1.7601   -5.6894 P.3       1 ACP        -1.2804
      2 O1G        -2.4533    1.8332   -5.6298 O.co2     1 ACP         0.3195
      3 O2G        -0.1277    2.7088   -6.5352 O.co2     1 ACP         0.3195
      4 O3G        -0.3439    1.7327   -4.1737 O.3       1 ACP         0.0326
      5 PB          1.2580   -0.5250   -6.3956 P.3       1 ACP        -1.2804
      6 O1B         1.8885    0.3351   -7.4658 O.co2     1 ACP         0.3195
      7 O2B         1.2331   -2.0334   -6.4871 O.co2     1 ACP         0.3195
      8 C3B        -0.4886    0.0416   -6.1897 C.3       1 ACP         0.8942
      9 PA          3.3324   -0.0529   -4.3266 P.3       1 ACP        -1.1062
     10 O1A         4.1264    0.9964   -5.0738 O.co2     1 ACP         0.3195
     11 O2A         3.8347   -1.4774   -4.2320 O.co2     1 ACP         0.3195
     12 O3A         1.8151   -0.0782   -4.9299 O.3       1 ACP         0.4672
     13 O5'         3.0198    0.5138   -2.8245 O.3       1 ACP         0.1618
     14 C5'         2.2816   -0.2918   -1.9206 C.3       1 ACP         0.1504
     15 C4'         2.7248    0.0226   -0.4980 C.3       1 ACP         0.1111
     16 O4'         2.4697    1.4219   -0.2462 O.3       1 ACP        -0.1436
     17 C3'         1.9404   -0.7419    0.5596 C.3       1 ACP         0.1111
     18 O3'         2.7418   -0.8086    1.7389 O.3       1 ACP        -0.2728
     19 C2'         0.7477    0.1630    0.7858 C.3       1 ACP         0.1111
     20 O2'         0.1373   -0.0577    2.0407 O.3       1 ACP        -0.2728
     21 C1'         1.3733    1.5427    0.6747 C.3       1 ACP         0.2693
     22 N9          0.4520    2.5240    0.1767 N.pl3     1 ACP        -0.3222
     23 C8         -1.0660    2.5608    0.3999 C.ar      1 ACP         0.1640
     24 N7         -1.5852    3.6333   -0.2221 N.2       1 ACP        -0.1640
     25 C5         -0.4682    4.1996   -0.7771 C.ar      1 ACP         0.0820
     26 C6         -0.5216    5.4476   -1.5899 C.ar      1 ACP         0.1640
     27 N6         -1.6813    6.0510   -1.7982 N.pl3     1 ACP        -0.4916
     28 N1          0.6621    5.8575   -2.0523 N.pl3     1 ACP        -0.4390
     29 C2          1.8795    5.1301   -1.7717 C.ar      1 ACP         0.5691
     30 N3          1.9458    4.0434   -1.0670 N.ar      1 ACP        -0.4283
     31 C4          0.7388    3.6199   -0.5917 C.ar      1 ACP         0.2226
     32 HOG3       -0.5354    2.4903   -3.5807 H         1 ACP         0.2010
     33 H3B1       -0.9889   -0.1384   -7.1477 H         1 ACP        -0.0393
     34 H3B2       -0.9419   -0.6302   -5.4523 H         1 ACP        -0.0393
     35 H5'1        1.2153   -0.0781   -2.0454 H         1 ACP        -0.0393
     36 H5'2        2.4645   -1.3454   -2.1547 H         1 ACP        -0.0393
     37 H4'         3.8046   -0.1390   -0.4011 H         1 ACP        -0.0393
     38 H3'         1.6787   -1.7627    0.2719 H         1 ACP        -0.0393
     39 HO3'        2.2231   -1.2979    2.3952 H         1 ACP         0.2010
     40 H2'         0.0002   -0.0084   -0.0014 H         1 ACP        -0.0393
     41 HO2'       -0.1554   -0.9852    2.0577 H         1 ACP         0.2010
     42 H1'         1.7718    1.9211    1.6015 H         1 ACP        -0.0393
     43 H8         -1.7235    1.8833    0.9537 H         1 ACP         0.0000
     44 HN61       -2.5296    5.6672   -1.4072 H         1 ACP         0.2048
     45 HN62       -1.7205    6.8969   -2.3483 H         1 ACP         0.2048
     46 H2          2.7750    5.5878   -2.2190 H         1 ACP        -0.1292
     47 H47         0.6808    6.7046   -2.6128 H         1 ACP         0.2048
@<TRIPOS>BOND
     1    1    2 2
     2    1    3 1
     3    1    4 1
     4    1    8 1
     5    4   32 1
     6    5    6 2
     7    5    7 1
     8    5    8 1
     9    5   12 1
    10    8   33 1
    11    8   34 1
    12    9   10 2
    13    9   11 1
    14    9   12 1
    15    9   13 1
    16   13   14 1
    17   14   15 1
    18   14   35 1
    19   14   36 1
    20   15   16 1
    21   15   17 1
    22   15   37 1
    23   16   21 1
    24   17   18 1
    25   17   19 1
    26   17   38 1
    27   18   39 1
    28   19   20 1
    29   19   21 1
    30   19   40 1
    31   20   41 1
    32   21   22 1
    33   21   42 1
    34   22   23 ar
    35   22   31 ar
    36   23   24 ar
    37   23   43 1
    38   24   25 ar
    39   25   26 ar
    40   25   31 ar
    41   26   27 1
    42   26   28 ar
    43   27   44 1
    44   27   45 1
    45   28   29 ar
    46   28   47 1
    47   29   30 ar
    48   29   46 1
    49   30   31 ar
@<TRIPOS>SUBSTRUCTURE
     1 ACP         1 GROUP 0 A     ****
@<TRIPOS>MOLECULE
[[5-(6-amino-1,8-dihydropurine-6,8-diylium-7-id-9-yl)-3,4-dihydroxy-tetrahydrofuran-2-yl]methoxy-oxido-phosphoryl]oxy-[[hydroxy(oxido)phosphoryl]methyl]phosphinate
   47    49     1     0     0
SMALL
USER_CHARGES

@<TRIPOS>ATOM
      1 PG         -5.2336   -6.2870    0.4008 P.3       1 ACP        -1.2804
      2 O1G        -6.4237   -5.5999   -0.2273 O.co2     1 ACP         0.3195
      3 O2G        -4.9015   -7.7346    0.1209 O.co2     1 ACP         0.3195
      4 O3G        -3.9007   -5.3742    0.1770 O.3       1 ACP         0.0326
      5 PB         -4.1485   -6.7825    3.4260 P.3       1 ACP        -1.2804
      6 O1B        -4.1072   -8.2794    3.2254 O.co2     1 ACP         0.3195
      7 O2B        -4.4336   -6.1591    4.7730 O.co2     1 ACP         0.3195
      8 C3B        -5.3823   -6.0992    2.2324 C.3       1 ACP         0.8942
      9 PA         -1.2314   -6.3276    3.1254 P.3       1 ACP        -1.1062
     10 O1A        -0.8495   -7.7340    2.7182 O.co2     1 ACP         0.3195
     11 O2A        -0.9696   -5.8343    4.5320 O.co2     1 ACP         0.3195
     12 O3A        -2.8126   -6.1031    2.7842 O.3       1 ACP         0.4672
     13 O5'        -0.5697   -5.2855    2.0524 O.3       1 ACP         0.1618
     14 C5'        -0.7840   -3.8935    2.2172 C.3       1 ACP         0.1504
     15 C4'        -0.0724   -3.1466    1.1027 C.3       1 ACP         0.1111
     16 O4'        -0.8674   -3.1929   -0.0945 O.3       1 ACP        -0.1436
     17 C3'         0.1338   -1.6715    1.4027 C.3       1 ACP         0.1111
     18 O3'         1.2893   -1.4445    2.1808 O.3       1 ACP        -0.2728
     19 C2'         0.2158   -1.0724    0.0128 C.3       1 ACP         0.1111
     20 O2'         1.5141   -1.2448   -0.5513 O.3       1 ACP        -0.2728
     21 C1'        -0.7897   -1.9176   -0.7583 C.3       1 ACP         0.2693
     22 N9         -2.1040   -1.3333   -0.7704 N.pl3     1 ACP        -0.3222
     23 C8         -3.2124   -1.5345    0.2719 C.ar      1 ACP         0.1640
     24 N7         -4.2964   -0.8234   -0.0828 N.2       1 ACP        -0.1640
     25 C5         -3.8754   -0.2386   -1.2478 C.ar      1 ACP         0.0820
     26 C6         -4.7432    0.6719   -2.0470 C.ar      1 ACP         0.1640
     27 N6         -5.9725    0.9415   -1.6366 N.pl3     1 ACP        -0.4916
     28 N1         -4.1703    1.1517   -3.1536 N.pl3     1 ACP        -0.4390
     29 C2         -2.8174    0.7994   -3.5215 C.ar      1 ACP         0.5691
     30 N3         -2.0475    0.0097   -2.8393 N.ar      1 ACP        -0.4283
     31 C4         -2.6278   -0.4836   -1.7071 C.ar      1 ACP         0.2226
     32 HOG3       -3.6195   -5.1741   -0.7411 H         1 ACP         0.2010
     33 H3B1       -6.3510   -6.5331    2.5040 H         1 ACP        -0.0393
     34 H3B2       -5.4374   -5.0236    2.4334 H         1 ACP        -0.0393
     35 H5'1       -1.8599   -3.6946    2.1849 H         1 ACP        -0.0393
     36 H5'2       -0.3934   -3.5881    3.1930 H         1 ACP        -0.0393
     37 H4'         0.8883   -3.6447    0.8783 H         1 ACP        -0.0393
     38 H3'        -0.7368   -1.2359    1.9871 H         1 ACP        -0.0393
     39 HO3'        1.3407   -0.4871    2.3218 H         1 ACP         0.2010
     40 H2'        -0.0343   -0.0280    0.0196 H         1 ACP        -0.0393
     41 HO2'        2.1443   -0.7955    0.0378 H         1 ACP         0.2010
     42 H1'        -0.5175   -2.1046   -1.7826 H         1 ACP        -0.0393
     43 H8         -3.2310   -2.1319    1.1889 H         1 ACP         0.0000
     44 HN61       -6.5630    1.5580   -2.1762 H         1 ACP         0.2048
     45 HN62       -6.3231    0.5311   -0.7832 H         1 ACP         0.2048
     46 H2         -2.4822    1.2710   -4.4579 H         1 ACP        -0.1292
     47 H47        -4.7200    1.7780   -3.7346 H         1 ACP         0.2048
@<TRIPOS>BOND
     1    1    2 2
     2    1    3 1
     3    1    4 1
     4    1    8 1
     5    4   32 1
     6    5    6 2
     7    5    7 1
     8    5    8 1
     9    5   12 1
    10    8   33 1
    11    8   34 1
    12    9   10 2
    13    9   11 1
    14    9   12 1
    15    9   13 1
    16   13   14 1
    17   14   15 1
    18   14   35 1
    19   14   36 1
    20   15   16 1
    21   15   17 1
    22   15   37 1
    23   16   21 1
    24   17   18 1
    25   17   19 1
    26   17   38 1
    27   18   39 1
    28   19   20 1
    29   19   21 1
    30   19   40 1
    31   20   41 1
    32   21   22 1
    33   21   42 1
    34   22   23 ar
    35   22   31 ar
    36   23   24 ar
    37   23   43 1
    38   24   25 ar
    39   25   26 ar
    40   25   31 ar
    41   26   27 1
    42   26   28 ar
    43   27   44 1
    44   27   45 1
    45   28   29 ar
    46   28   47 1
    47   29   30 ar
    48   29   46 1
    49   30   31 ar
@<TRIPOS>SUBSTRUCTURE
     1 ACP         1 GROUP 0 A     ****
@<TRIPOS>MOLECULE
[[5-(6-amino-1,8-dihydropurine-6,8-diylium-7-id-9-yl)-3,4-dihydroxy-tetrahydrofuran-2-yl]methoxy-oxido-phosphoryl]oxy-[[hydroxy(oxido)phosphoryl]methyl]phosphinate
   47    49     1     0     0
SMALL
USER_CHARGES

@<TRIPOS>ATOM
      1 PG          5.9947    1.5527   -3.9419 P.3       1 ACP        -1.2804
      2 O1G         5.7915    2.0183   -2.5189 O.co2     1 ACP         0.3195
      3 O2G         4.8824    1.5855   -4.9646 O.co2     1 ACP         0.3195
      4 O3G         7.3207    2.2711   -4.5629 O.3       1 ACP         0.0326
      5 PB          5.7071   -1.5745   -3.0977 P.3       1 ACP        -1.2804
      6 O1B         5.4960   -1.2202   -1.6442 O.co2     1 ACP         0.3195
      7 O2B         6.3847   -2.8569   -3.5227 O.co2     1 ACP         0.3195
      8 C3B         6.6340   -0.1791   -3.8773 C.3       1 ACP         0.8942
      9 PA          2.8591   -2.1299   -3.7201 P.3       1 ACP        -1.1062
     10 O1A         3.0727   -3.6280   -3.7234 O.co2     1 ACP         0.3195
     11 O2A         1.8686   -1.4903   -4.6689 O.co2     1 ACP         0.3195
     12 O3A         4.3077   -1.4018   -3.9162 O.3       1 ACP         0.4672
     13 O5'         2.5237   -1.6631   -2.1889 O.3       1 ACP         0.1618
     14 C5'         2.2816   -0.2918   -1.9206 C.3       1 ACP         0.1504
     15 C4'         2.7248    0.0226   -0.4980 C.3       1 ACP         0.1111
     16 O4'         2.4697    1.4219   -0.2462 O.3       1 ACP        -0.1436
     17 C3'         1.9404   -0.7419    0.5596 C.3       1 ACP         0.1111
     18 O3'         2.7418   -0.8086    1.7389 O.3       1 ACP        -0.2728
     19 C2'         0.7477    0.1630    0.7858 C.3       1 ACP         0.1111
     20 O2'         0.1373   -0.0577    2.0407 O.3       1 ACP        -0.2728
     21 C1'         1.3733    1.5427    0.6747 C.3       1 ACP         0.2693
     22 N9          0.4520    2.5240    0.1767 N.pl3     1 ACP        -0.3222
     23 C8          0.1798    2.8712   -1.2933 C.ar      1 ACP         0.1640
     24 N7         -0.7494    3.8400   -1.3610 N.2       1 ACP        -0.1640
     25 C5         -1.0173    4.0603   -0.0358 C.ar      1 ACP         0.0820
     26 C6         -2.0105    5.0717    0.4241 C.ar      1 ACP         0.1640
     27 N6         -2.6723    5.7982   -0.4628 N.pl3     1 ACP        -0.4916
     28 N1         -2.1445    5.1522    1.7502 N.pl3     1 ACP        -0.4390
     29 C2         -1.3755    4.3143    2.6426 C.ar      1 ACP         0.5691
     30 N3         -0.5075    3.4292    2.2616 N.ar      1 ACP        -0.4283
     31 C4         -0.3667    3.3425    0.9070 C.ar      1 ACP         0.2226
     32 HOG3        7.3417    3.2505   -4.6136 H         1 ACP         0.2010
     33 H3B1        7.6025   -0.1260   -3.3677 H         1 ACP        -0.0393
     34 H3B2        6.8251   -0.4812   -4.9130 H         1 ACP        -0.0393
     35 H5'1        2.8429    0.3140   -2.6391 H         1 ACP        -0.0393
     36 H5'2        1.2125   -0.0906   -2.0420 H         1 ACP        -0.0393
     37 H4'         3.8046   -0.1390   -0.4011 H         1 ACP        -0.0393
     38 H3'         1.6787   -1.7627    0.2719 H         1 ACP        -0.0393
     39 HO3'        3.5553   -1.2733    1.4913 H         1 ACP         0.2010
     40 H2'         0.0002   -0.0084   -0.0014 H         1 ACP        -0.0393
     41 HO2'       -0.1554   -0.9852    2.0577 H         1 ACP         0.2010
     42 H1'         1.7718    1.9211    1.6015 H         1 ACP        -0.0393
     43 H8          0.6089    2.4651   -2.2147 H         1 ACP         0.0000
     44 HN61       -2.5055    5.6680   -1.4503 H         1 ACP         0.2048
     45 HN62       -3.3462    6.4841   -0.1542 H         1 ACP         0.2048
     46 H2         -1.5932    4.4937    3.7066 H         1 ACP        -0.1292
     47 H47        -2.8098    5.8270    2.1160 H         1 ACP         0.2048
@<TRIPOS>BOND
     1    1    2 2
     2    1    3 1
     3    1    4 1
     4    1    8 1
     5    4   32 1
     6    5    6 2
     7    5    7 1
     8    5    8 1
     9    5   12 1
    10    8   33 1
    11    8   34 1
    12    9   10 2
    13    9   11 1
    14    9   12 1
    15    9   13 1
    16   13   14 1
    17   14   15 1
    18   14   35 1
    19   14   36 1
    20   15   16 1
    21   15   17 1
    22   15   37 1
    23   16   21 1
    24   17   18 1
    25   17   19 1
    26   17   38 1
    27   18   39 1
    28   19   20 1
    29   19   21 1
    30   19   40 1
    31   20   41 1
    32   21   22 1
    33   21   42 1
    34   22   23 ar
    35   22   31 ar
    36   23   24 ar
    37   23   43 1
    38   24   25 ar
    39   25   26 ar
    40   25   31 ar
    41   26   27 1
    42   26   28 ar
    43   27   44 1
    44   27   45 1
    45   28   29 ar
    46   28   47 1
    47   29   30 ar
    48   29   46 1
    49   30   31 ar
@<TRIPOS>SUBSTRUCTURE
     1 ACP         1 GROUP 0 A     ****
@<TRIPOS>MOLECULE
[[5-(6-amino-1,8-dihydropurine-6,8-diylium-7-id-9-yl)-3,4-dihydroxy-tetrahydrofuran-2-yl]methoxy-oxido-phosphoryl]oxy-[[hydroxy(oxido)phosphoryl]methyl]phosphinate
   47    49     1     0     0
SMALL
USER_CHARGES

@<TRIPOS>ATOM
      1 PG          6.7415    1.6670    0.7742 P.3       1 ACP        -1.2804
      2 O1G         6.8467    1.4742    2.2690 O.co2     1 ACP         0.3195
      3 O2G         5.5314    2.3026    0.1293 O.co2     1 ACP         0.3195
      4 O3G         8.0922    2.3982    0.2258 O.3       1 ACP         0.0326
      5 PB          6.9454   -0.2436   -1.8494 P.3       1 ACP        -1.2804
      6 O1B         7.1873   -1.7136   -2.1010 O.co2     1 ACP         0.3195
      7 O2B         7.8023    0.8316   -2.4771 O.co2     1 ACP         0.3195
      8 C3B         6.9882    0.0180   -0.0208 C.3       1 ACP         0.8942
      9 PA          4.4357   -0.0473   -3.4208 P.3       1 ACP        -1.1062
     10 O1A         4.2723   -1.5208   -3.7237 O.co2     1 ACP         0.3195
     11 O2A         4.9479    0.9052   -4.4795 O.co2     1 ACP         0.3195
     12 O3A         5.3713    0.1055   -2.0911 O.3       1 ACP         0.4672
     13 O5'         3.0198    0.5138   -2.8245 O.3       1 ACP         0.1618
     14 C5'         2.2816   -0.2918   -1.9206 C.3       1 ACP         0.1504
     15 C4'         2.7248    0.0226   -0.4980 C.3       1 ACP         0.1111
     16 O4'         2.4697    1.4219   -0.2462 O.3       1 ACP        -0.1436
     17 C3'         1.9404   -0.7419    0.5596 C.3       1 ACP         0.1111
     18 O3'         2.7418   -0.8086    1.7389 O.3       1 ACP        -0.2728
     19 C2'         0.7477    0.1630    0.7858 C.3       1 ACP         0.1111
     20 O2'         0.1373   -0.0577    2.0407 O.3       1 ACP        -0.2728
     21 C1'         1.3733    1.5427    0.6747 C.3       1 ACP         0.2693
     22 N9          0.4520    2.5240    0.1767 N.pl3     1 ACP        -0.3222
     23 C8          0.1798    2.8712   -1.2933 C.ar      1 ACP         0.1640
     24 N7         -0.7494    3.8400   -1.3610 N.2       1 ACP        -0.1640
     25 C5         -1.0173    4.0603   -0.0358 C.ar      1 ACP         0.0820
     26 C6         -2.0105    5.0717    0.4241 C.ar      1 ACP         0.1640
     27 N6         -2.6723    5.7982   -0.4628 N.pl3     1 ACP        -0.4916
     28 N1         -2.1445    5.1522    1.7502 N.pl3     1 ACP        -0.4390
     29 C2         -1.3755    4.3143    2.6426 C.ar      1 ACP         0.5691
     30 N3         -0.5075    3.4292    2.2616 N.ar      1 ACP        -0.4283
     31 C4         -0.3667    3.3425    0.9070 C.ar      1 ACP         0.2226
     32 HOG3        8.3200    3.2849    0.5781 H         1 ACP         0.2010
     33 H3B1        6.2242   -0.6415    0.4056 H         1 ACP        -0.0393
     34 H3B2        7.9635   -0.3496    0.3169 H         1 ACP        -0.0393
     35 H5'1        1.2153   -0.0781   -2.0454 H         1 ACP        -0.0393
     36 H5'2        2.4645   -1.3454   -2.1547 H         1 ACP        -0.0393
     37 H4'         3.8046   -0.1390   -0.4011 H         1 ACP        -0.0393
     38 H3'         1.6787   -1.7627    0.2719 H         1 ACP        -0.0393
     39 HO3'        2.2231   -1.2979    2.3952 H         1 ACP         0.2010
     40 H2'         0.0002   -0.0084   -0.0014 H         1 ACP        -0.0393
     41 HO2'       -0.6132    0.5577    2.1063 H         1 ACP         0.2010
     42 H1'         1.7718    1.9211    1.6015 H         1 ACP        -0.0393
     43 H8          0.6089    2.4651   -2.2147 H         1 ACP         0.0000
     44 HN61       -2.5055    5.6680   -1.4503 H         1 ACP         0.2048
     45 HN62       -3.3462    6.4841   -0.1542 H         1 ACP         0.2048
     46 H2         -1.5932    4.4937    3.7066 H         1 ACP        -0.1292
     47 H47        -2.8098    5.8270    2.1160 H         1 ACP         0.2048
@<TRIPOS>BOND
     1    1    2 2
     2    1    3 1
     3    1    4 1
     4    1    8 1
     5    4   32 1
     6    5    6 2
     7    5    7 1
     8    5    8 1
     9    5   12 1
    10    8   33 1
    11    8   34 1
    12    9   10 2
    13    9   11 1
    14    9   12 1
    15    9   13 1
    16   13   14 1
    17   14   15 1
    18   14   35 1
    19   14   36 1
    20   15   16 1
    21   15   17 1
    22   15   37 1
    23   16   21 1
    24   17   18 1
    25   17   19 1
    26   17   38 1
    27   18   39 1
    28   19   20 1
    29   19   21 1
    30   19   40 1
    31   20   41 1
    32   21   22 1
    33   21   42 1
    34   22   23 ar
    35   22   31 ar
    36   23   24 ar
    37   23   43 1
    38   24   25 ar
    39   25   26 ar
    40   25   31 ar
    41   26   27 1
    42   26   28 ar
    43   27   44 1
    44   27   45 1
    45   28   29 ar
    46   28   47 1
    47   29   30 ar
    48   29   46 1
    49   30   31 ar
@<TRIPOS>SUBSTRUCTURE
     1 ACP         1 GROUP 0 A     ****
@<TRIPOS>MOLECULE
[[5-(6-amino-1,8-dihydropurine-6,8-diylium-7-id-9-yl)-3,4-dihydroxy-tetrahydrofuran-2-yl]methoxy-oxido-phosphoryl]oxy-[[hydroxy(oxido)phosphoryl]methyl]phosphinate
   47    49     1     0     0
SMALL
USER_CHARGES

@<TRIPOS>ATOM
      1 PG          3.0735   -3.5314   -6.1952 P.3       1 ACP        -1.2804
      2 O1G         2.8936   -5.0258   -6.0640 O.co2     1 ACP         0.3195
      3 O2G         4.0017   -2.7515   -5.2927 O.co2     1 ACP         0.3195
      4 O3G         3.3931   -3.1585   -7.7504 O.3       1 ACP         0.0326
      5 PB          1.1205   -0.9312   -6.1772 P.3       1 ACP        -1.2804
      6 O1B        -0.3648   -0.6948   -6.0334 O.co2     1 ACP         0.3195
      7 O2B         1.9045   -0.4236   -7.3654 O.co2     1 ACP         0.3195
      8 C3B         1.4022   -2.7543   -6.0716 C.3       1 ACP         0.8942
      9 PA          2.3321    0.9617   -4.2393 P.3       1 ACP        -1.1062
     10 O1A         1.0835    1.7582   -3.9287 O.co2     1 ACP         0.3195
     11 O2A         3.3949    1.5221   -5.1596 O.co2     1 ACP         0.3195
     12 O3A         1.8825   -0.5045   -4.8004 O.3       1 ACP         0.4672
     13 O5'         3.0198    0.5138   -2.8245 O.3       1 ACP         0.1618
     14 C5'         2.2816   -0.2918   -1.9206 C.3       1 ACP         0.1504
     15 C4'         2.7248    0.0226   -0.4980 C.3       1 ACP         0.1111
     16 O4'         2.4697    1.4219   -0.2462 O.3       1 ACP        -0.1436
     17 C3'         1.9404   -0.7419    0.5596 C.3       1 ACP         0.1111
     18 O3'         2.7418   -0.8086    1.7389 O.3       1 ACP        -0.2728
     19 C2'         0.7477    0.1630    0.7858 C.3       1 ACP         0.1111
     20 O2'         0.1373   -0.0577    2.0407 O.3       1 ACP        -0.2728
     21 C1'         1.3733    1.5427    0.6747 C.3       1 ACP         0.2693
     22 N9          0.4520    2.5240    0.1767 N.pl3     1 ACP        -0.3222
     23 C8          0.5793    3.3338   -1.1209 C.ar      1 ACP         0.1640
     24 N7         -0.4807    4.1508   -1.2458 N.2       1 ACP        -0.1640
     25 C5         -1.1921    3.8572   -0.1126 C.ar      1 ACP         0.0820
     26 C6         -2.4855    4.5203    0.2163 C.ar      1 ACP         0.1640
     27 N6         -2.9873    5.4319   -0.6020 N.pl3     1 ACP        -0.4916
     28 N1         -3.0414    4.1119    1.3596 N.pl3     1 ACP        -0.4390
     29 C2         -2.4169    3.1071    2.1904 C.ar      1 ACP         0.5691
     30 N3         -1.2928    2.5191    1.9210 N.ar      1 ACP        -0.4283
     31 C4         -0.7202    2.9326    0.7534 C.ar      1 ACP         0.2226
     32 HOG3        4.1910   -3.5454   -8.1697 H         1 ACP         0.2010
     33 H3B1        0.9877   -3.0779   -5.1104 H         1 ACP        -0.0393
     34 H3B2        0.7889   -3.2036   -6.8606 H         1 ACP        -0.0393
     35 H5'1        1.2153   -0.0781   -2.0454 H         1 ACP        -0.0393
     36 H5'2        2.4645   -1.3454   -2.1547 H         1 ACP        -0.0393
     37 H4'         3.8046   -0.1390   -0.4011 H         1 ACP        -0.0393
     38 H3'         1.6787   -1.7627    0.2719 H         1 ACP        -0.0393
     39 HO3'        2.2231   -1.2979    2.3952 H         1 ACP         0.2010
     40 H2'         0.0002   -0.0084   -0.0014 H         1 ACP        -0.0393
     41 HO2'       -0.1554   -0.9852    2.0577 H         1 ACP         0.2010
     42 H1'         1.7718    1.9211    1.6015 H         1 ACP        -0.0393
     43 H8          1.3565    3.3309   -1.8916 H         1 ACP         0.0000
     44 HN61       -2.4952    5.6785   -1.4487 H         1 ACP         0.2048
     45 HN62       -3.8637    5.8828   -0.3819 H         1 ACP         0.2048
     46 H2         -2.9911    2.8734    3.1000 H         1 ACP        -0.1292
     47 H47        -3.9253    4.5332    1.6302 H         1 ACP         0.2048
@<TRIPOS>BOND
     1    1    2 2
     2    1    3 1
     3    1    4 1
     4    1    8 1
     5    4   32 1
     6    5    6 2
     7    5    7 1
     8    5    8 1
     9    5   12 1
    10    8   33 1
    11    8   34 1
    12    9   10 2
    13    9   11 1
    14    9   12 1
    15    9   13 1
    16   13   14 1
    17   14   15 1
    18   14   35 1
    19   14   36 1
    20   15   16 1
    21   15   17 1
    22   15   37 1
    23   16   21 1
    24   17   18 1
    25   17   19 1
    26   17   38 1
    27   18   39 1
    28   19   20 1
    29   19   21 1
    30   19   40 1
    31   20   41 1
    32   21   22 1
    33   21   42 1
    34   22   23 ar
    35   22   31 ar
    36   23   24 ar
    37   23   43 1
    38   24   25 ar
    39   25   26 ar
    40   25   31 ar
    41   26   27 1
    42   26   28 ar
    43   27   44 1
    44   27   45 1
    45   28   29 ar
    46   28   47 1
    47   29   30 ar
    48   29   46 1
    49   30   31 ar
@<TRIPOS>SUBSTRUCTURE
     1 ACP         1 GROUP 0 A     ****
@<TRIPOS>MOLECULE
[[5-(6-amino-1,8-dihydropurine-6,8-diylium-7-id-9-yl)-3,4-dihydroxy-tetrahydrofuran-2-yl]methoxy-oxido-phosphoryl]oxy-[[hydroxy(oxido)phosphoryl]methyl]phosphinate
   47    49     1     0     0
SMALL
USER_CHARGES

@<TRIPOS>ATOM
      1 PG         -1.3216   -0.4318   -4.7967 P.3       1 ACP        -1.2804
      2 O1G        -1.5881    0.3597   -3.5375 O.co2     1 ACP         0.3195
      3 O2G        -0.7401   -1.8263   -4.7612 O.co2     1 ACP         0.3195
      4 O3G        -2.6574   -0.4273   -5.7324 O.3       1 ACP         0.0326
      5 PB          1.4479    1.1717   -5.3743 P.3       1 ACP        -1.2804
      6 O1B         1.2787    2.0218   -4.1368 O.co2     1 ACP         0.3195
      7 O2B         2.1387    1.6871   -6.6159 O.co2     1 ACP         0.3195
      8 C3B        -0.2321    0.5930   -5.8807 C.3       1 ACP         0.8942
      9 PA          3.4821   -0.6660   -4.2377 P.3       1 ACP        -1.1062
     10 O1A         4.6119   -0.0112   -5.0023 O.co2     1 ACP         0.3195
     11 O2A         3.4912   -2.1564   -3.9749 O.co2     1 ACP         0.3195
     12 O3A         2.0730   -0.2777   -4.9662 O.3       1 ACP         0.4672
     13 O5'         3.2883    0.1336   -2.8242 O.3       1 ACP         0.1618
     14 C5'         2.2816   -0.2918   -1.9206 C.3       1 ACP         0.1504
     15 C4'         2.7248    0.0226   -0.4980 C.3       1 ACP         0.1111
     16 O4'         2.4697    1.4219   -0.2462 O.3       1 ACP        -0.1436
     17 C3'         1.9404   -0.7419    0.5596 C.3       1 ACP         0.1111
     18 O3'         2.7418   -0.8086    1.7389 O.3       1 ACP        -0.2728
     19 C2'         0.7477    0.1630    0.7858 C.3       1 ACP         0.1111
     20 O2'         0.1373   -0.0577    2.0407 O.3       1 ACP        -0.2728
     21 C1'         1.3733    1.5427    0.6747 C.3       1 ACP         0.2693
     22 N9          0.4520    2.5240    0.1767 N.pl3     1 ACP        -0.3222
     23 C8         -0.3054    2.4845   -1.1576 C.ar      1 ACP         0.1640
     24 N7         -1.0755    3.5806   -1.2691 N.2       1 ACP        -0.1640
     25 C5         -0.8043    4.2306   -0.0942 C.ar      1 ACP         0.0820
     26 C6         -1.4324    5.5335    0.2646 C.ar      1 ACP         0.1640
     27 N6         -2.2885    6.1055   -0.5675 N.pl3     1 ACP        -0.4916
     28 N1         -1.0537    6.0229    1.4478 N.pl3     1 ACP        -0.4390
     29 C2         -0.1096    5.3242    2.2908 C.ar      1 ACP         0.5691
     30 N3          0.4468    4.1904    1.9960 N.ar      1 ACP        -0.4283
     31 C4          0.0631    3.6855    0.7877 C.ar      1 ACP         0.2226
     32 HOG3       -3.4852   -0.8067   -5.3677 H         1 ACP         0.2010
     33 H3B1       -0.8089    1.4911   -6.1281 H         1 ACP        -0.0393
     34 H3B2       -0.0927    0.0275   -6.8087 H         1 ACP        -0.0393
     35 H5'1        1.3500    0.2325   -2.1560 H         1 ACP        -0.0393
     36 H5'2        2.1267   -1.3683   -2.0444 H         1 ACP        -0.0393
     37 H4'         3.8046   -0.1390   -0.4011 H         1 ACP        -0.0393
     38 H3'         1.6787   -1.7627    0.2719 H         1 ACP        -0.0393
     39 HO3'        2.2231   -1.2979    2.3952 H         1 ACP         0.2010
     40 H2'         0.0002   -0.0084   -0.0014 H         1 ACP        -0.0393
     41 HO2'       -0.6132    0.5577    2.1063 H         1 ACP         0.2010
     42 H1'         1.7718    1.9211    1.6015 H         1 ACP        -0.0393
     43 H8         -0.2991    1.7413   -1.9611 H         1 ACP         0.0000
     44 HN61       -2.5167    5.6603   -1.4447 H         1 ACP         0.2048
     45 HN62       -2.7159    6.9882   -0.3270 H         1 ACP         0.2048
     46 H2          0.1059    5.8491    3.2340 H         1 ACP        -0.1292
     47 H47        -1.4532    6.9099    1.7401 H         1 ACP         0.2048
@<TRIPOS>BOND
     1    1    2 2
     2    1    3 1
     3    1    4 1
     4    1    8 1
     5    4   32 1
     6    5    6 2
     7    5    7 1
     8    5    8 1
     9    5   12 1
    10    8   33 1
    11    8   34 1
    12    9   10 2
    13    9   11 1
    14    9   12 1
    15    9   13 1
    16   13   14 1
    17   14   15 1
    18   14   35 1
    19   14   36 1
    20   15   16 1
    21   15   17 1
    22   15   37 1
    23   16   21 1
    24   17   18 1
    25   17   19 1
    26   17   38 1
    27   18   39 1
    28   19   20 1
    29   19   21 1
    30   19   40 1
    31   20   41 1
    32   21   22 1
    33   21   42 1
    34   22   23 ar
    35   22   31 ar
    36   23   24 ar
    37   23   43 1
    38   24   25 ar
    39   25   26 ar
    40   25   31 ar
    41   26   27 1
    42   26   28 ar
    43   27   44 1
    44   27   45 1
    45   28   29 ar
    46   28   47 1
    47   29   30 ar
    48   29   46 1
    49   30   31 ar
@<TRIPOS>SUBSTRUCTURE
     1 ACP         1 GROUP 0 A     ****
@<TRIPOS>MOLECULE
[[5-(6-amino-1,8-dihydropurine-6,8-diylium-7-id-9-yl)-3,4-dihydroxy-tetrahydrofuran-2-yl]methoxy-oxido-phosphoryl]oxy-[[hydroxy(oxido)phosphoryl]methyl]phosphinate
   47    49     1     0     0
SMALL
USER_CHARGES

@<TRIPOS>ATOM
      1 PG          2.2125   -3.9381   -5.5926 P.3       1 ACP        -1.2804
      2 O1G         1.5898   -5.2752   -5.2651 O.co2     1 ACP         0.3195
      3 O2G         3.2686   -3.3070   -4.7148 O.co2     1 ACP         0.3195
      4 O3G         2.7297   -3.9454   -7.1393 O.3       1 ACP         0.0326
      5 PB          1.1205   -0.9312   -6.1772 P.3       1 ACP        -1.2804
      6 O1B        -0.2343   -0.2652   -6.2389 O.co2     1 ACP         0.3195
      7 O2B         2.0960   -0.8786   -7.3304 O.co2     1 ACP         0.3195
      8 C3B         0.8420   -2.7129   -5.7744 C.3       1 ACP         0.8942
      9 PA          2.3321    0.9617   -4.2393 P.3       1 ACP        -1.1062
     10 O1A         1.0835    1.7582   -3.9287 O.co2     1 ACP         0.3195
     11 O2A         3.3949    1.5221   -5.1596 O.co2     1 ACP         0.3195
     12 O3A         1.8825   -0.5045   -4.8004 O.3       1 ACP         0.4672
     13 O5'         3.0198    0.5138   -2.8245 O.3       1 ACP         0.1618
     14 C5'         2.2816   -0.2918   -1.9206 C.3       1 ACP         0.1504
     15 C4'         2.7248    0.0226   -0.4980 C.3       1 ACP         0.1111
     16 O4'         2.4697    1.4219   -0.2462 O.3       1 ACP        -0.1436
     17 C3'         1.9404   -0.7419    0.5596 C.3       1 ACP         0.1111
     18 O3'         2.7418   -0.8086    1.7389 O.3       1 ACP        -0.2728
     19 C2'         0.7477    0.1630    0.7858 C.3       1 ACP         0.1111
     20 O2'         0.1373   -0.0577    2.0407 O.3       1 ACP        -0.2728
     21 C1'         1.3733    1.5427    0.6747 C.3       1 ACP         0.2693
     22 N9          0.4520    2.5240    0.1767 N.pl3     1 ACP        -0.3222
     23 C8         -1.0660    2.5608    0.3999 C.ar      1 ACP         0.1640
     24 N7         -1.5852    3.6333   -0.2221 N.2       1 ACP        -0.1640
     25 C5         -0.4682    4.1996   -0.7771 C.ar      1 ACP         0.0820
     26 C6         -0.5216    5.4476   -1.5899 C.ar      1 ACP         0.1640
     27 N6         -1.6813    6.0510   -1.7982 N.pl3     1 ACP        -0.4916
     28 N1          0.6621    5.8575   -2.0523 N.pl3     1 ACP        -0.4390
     29 C2          1.8795    5.1301   -1.7717 C.ar      1 ACP         0.5691
     30 N3          1.9458    4.0434   -1.0670 N.ar      1 ACP        -0.4283
     31 C4          0.7388    3.6199   -0.5917 C.ar      1 ACP         0.2226
     32 HOG3        3.4030   -4.6077   -7.4042 H         1 ACP         0.2010
     33 H3B1        0.2881   -2.7352   -4.8294 H         1 ACP        -0.0393
     34 H3B2        0.1764   -3.1010   -6.5533 H         1 ACP        -0.0393
     35 H5'1        1.2153   -0.0781   -2.0454 H         1 ACP        -0.0393
     36 H5'2        2.4645   -1.3454   -2.1547 H         1 ACP        -0.0393
     37 H4'         3.8046   -0.1390   -0.4011 H         1 ACP        -0.0393
     38 H3'         1.6787   -1.7627    0.2719 H         1 ACP        -0.0393
     39 HO3'        2.2231   -1.2979    2.3952 H         1 ACP         0.2010
     40 H2'         0.0002   -0.0084   -0.0014 H         1 ACP        -0.0393
     41 HO2'       -0.1554   -0.9852    2.0577 H         1 ACP         0.2010
     42 H1'         1.7718    1.9211    1.6015 H         1 ACP        -0.0393
     43 H8         -1.7235    1.8833    0.9537 H         1 ACP         0.0000
     44 HN61       -2.5296    5.6672   -1.4072 H         1 ACP         0.2048
     45 HN62       -1.7205    6.8969   -2.3483 H         1 ACP         0.2048
     46 H2          2.7750    5.5878   -2.2190 H         1 ACP        -0.1292
     47 H47         0.6808    6.7046   -2.6128 H         1 ACP         0.2048
@<TRIPOS>BOND
     1    1    2 2
     2    1    3 1
     3    1    4 1
     4    1    8 1
     5    4   32 1
     6    5    6 2
     7    5    7 1
     8    5    8 1
     9    5   12 1
    10    8   33 1
    11    8   34 1
    12    9   10 2
    13    9   11 1
    14    9   12 1
    15    9   13 1
    16   13   14 1
    17   14   15 1
    18   14   35 1
    19   14   36 1
    20   15   16 1
    21   15   17 1
    22   15   37 1
    23   16   21 1
    24   17   18 1
    25   17   19 1
    26   17   38 1
    27   18   39 1
    28   19   20 1
    29   19   21 1
    30   19   40 1
    31   20   41 1
    32   21   22 1
    33   21   42 1
    34   22   23 ar
    35   22   31 ar
    36   23   24 ar
    37   23   43 1
    38   24   25 ar
    39   25   26 ar
    40   25   31 ar
    41   26   27 1
    42   26   28 ar
    43   27   44 1
    44   27   45 1
    45   28   29 ar
    46   28   47 1
    47   29   30 ar
    48   29   46 1
    49   30   31 ar
@<TRIPOS>SUBSTRUCTURE
     1 ACP         1 GROUP 0 A     ****
@<TRIPOS>MOLECULE
[[5-(6-amino-1,8-dihydropurine-6,8-diylium-7-id-9-yl)-3,4-dihydroxy-tetrahydrofuran-2-yl]methoxy-oxido-phosphoryl]oxy-[[hydroxy(oxido)phosphoryl]methyl]phosphinate
   47    49     1     0     0
SMALL
USER_CHARGES

@<TRIPOS>ATOM
      1 PG         -0.6929    0.2880   -5.3978 P.3       1 ACP        -1.2804
      2 O1G        -1.8421    0.6083   -6.3249 O.co2     1 ACP         0.3195
      3 O2G         0.1933    1.3646   -4.8149 O.co2     1 ACP         0.3195
      4 O3G        -1.2185   -0.6861   -4.1999 O.3       1 ACP         0.0326
      5 PB          1.9472   -1.6070   -5.5155 P.3       1 ACP        -1.2804
      6 O1B         2.8642   -0.4423   -5.2234 O.co2     1 ACP         0.3195
      7 O2B         2.3792   -2.7761   -6.3704 O.co2     1 ACP         0.3195
      8 C3B         0.4036   -0.9204   -6.2637 C.3       1 ACP         0.8942
      9 PA          2.0054   -2.7672   -2.7847 P.3       1 ACP        -1.1062
     10 O1A         2.9308   -3.8905   -3.1989 O.co2     1 ACP         0.3195
     11 O2A         0.9346   -2.9961   -1.7400 O.co2     1 ACP         0.3195
     12 O3A         1.2984   -2.1600   -4.1258 O.3       1 ACP         0.4672
     13 O5'         2.9202   -1.4821   -2.3524 O.3       1 ACP         0.1618
     14 C5'         2.2816   -0.2918   -1.9206 C.3       1 ACP         0.1504
     15 C4'         2.7248    0.0226   -0.4980 C.3       1 ACP         0.1111
     16 O4'         2.4697    1.4219   -0.2462 O.3       1 ACP        -0.1436
     17 C3'         1.9404   -0.7419    0.5596 C.3       1 ACP         0.1111
     18 O3'         2.7418   -0.8086    1.7389 O.3       1 ACP        -0.2728
     19 C2'         0.7477    0.1630    0.7858 C.3       1 ACP         0.1111
     20 O2'         0.1373   -0.0577    2.0407 O.3       1 ACP        -0.2728
     21 C1'         1.3733    1.5427    0.6747 C.3       1 ACP         0.2693
     22 N9          0.4520    2.5240    0.1767 N.pl3     1 ACP        -0.3222
     23 C8          0.1798    2.8712   -1.2933 C.ar      1 ACP         0.1640
     24 N7         -0.7494    3.8400   -1.3610 N.2       1 ACP        -0.1640
     25 C5         -1.0173    4.0603   -0.0358 C.ar      1 ACP         0.0820
     26 C6         -2.0105    5.0717    0.4241 C.ar      1 ACP         0.1640
     27 N6         -2.6723    5.7982   -0.4628 N.pl3     1 ACP        -0.4916
     28 N1         -2.1445    5.1522    1.7502 N.pl3     1 ACP        -0.4390
     29 C2         -1.3755    4.3143    2.6426 C.ar      1 ACP         0.5691
     30 N3         -0.5075    3.4292    2.2616 N.ar      1 ACP        -0.4283
     31 C4         -0.3667    3.3425    0.9070 C.ar      1 ACP         0.2226
     32 HOG3       -1.9326   -0.3604   -3.6116 H         1 ACP         0.2010
     33 H3B1        0.7000   -0.4415   -7.2035 H         1 ACP        -0.0393
     34 H3B2       -0.2214   -1.7834   -6.5188 H         1 ACP        -0.0393
     35 H5'1        2.5581    0.5235   -2.5966 H         1 ACP        -0.0393
     36 H5'2        1.1974   -0.4370   -1.9607 H         1 ACP        -0.0393
     37 H4'         3.8046   -0.1390   -0.4011 H         1 ACP        -0.0393
     38 H3'         1.6787   -1.7627    0.2719 H         1 ACP        -0.0393
     39 HO3'        2.2231   -1.2979    2.3952 H         1 ACP         0.2010
     40 H2'         0.0002   -0.0084   -0.0014 H         1 ACP        -0.0393
     41 HO2'       -0.1554   -0.9852    2.0577 H         1 ACP         0.2010
     42 H1'         1.7718    1.9211    1.6015 H         1 ACP        -0.0393
     43 H8          0.6089    2.4651   -2.2147 H         1 ACP         0.0000
     44 HN61       -2.5055    5.6680   -1.4503 H         1 ACP         0.2048
     45 HN62       -3.3462    6.4841   -0.1542 H         1 ACP         0.2048
     46 H2         -1.5932    4.4937    3.7066 H         1 ACP        -0.1292
     47 H47        -2.8098    5.8270    2.1160 H         1 ACP         0.2048
@<TRIPOS>BOND
     1    1    2 2
     2    1    3 1
     3    1    4 1
     4    1    8 1
     5    4   32 1
     6    5    6 2
     7    5    7 1
     8    5    8 1
     9    5   12 1
    10    8   33 1
    11    8   34 1
    12    9   10 2
    13    9   11 1
    14    9   12 1
    15    9   13 1
    16   13   14 1
    17   14   15 1
    18   14   35 1
    19   14   36 1
    20   15   16 1
    21   15   17 1
    22   15   37 1
    23   16   21 1
    24   17   18 1
    25   17   19 1
    26   17   38 1
    27   18   39 1
    28   19   20 1
    29   19   21 1
    30   19   40 1
    31   20   41 1
    32   21   22 1
    33   21   42 1
    34   22   23 ar
    35   22   31 ar
    36   23   24 ar
    37   23   43 1
    38   24   25 ar
    39   25   26 ar
    40   25   31 ar
    41   26   27 1
    42   26   28 ar
    43   27   44 1
    44   27   45 1
    45   28   29 ar
    46   28   47 1
    47   29   30 ar
    48   29   46 1
    49   30   31 ar
@<TRIPOS>SUBSTRUCTURE
     1 ACP         1 GROUP 0 A     ****
@<TRIPOS>MOLECULE
[[5-(6-amino-1,8-dihydropurine-6,8-diylium-7-id-9-yl)-3,4-dihydroxy-tetrahydrofuran-2-yl]methoxy-oxido-phosphoryl]oxy-[[hydroxy(oxido)phosphoryl]methyl]phosphinate
   47    49     1     0     0
SMALL
USER_CHARGES

@<TRIPOS>ATOM
      1 PG         -1.2226   -4.2640    0.4432 P.3       1 ACP        -1.2804
      2 O1G        -2.0422   -3.9817    1.6806 O.co2     1 ACP         0.3195
      3 O2G         0.2785   -4.0898    0.4165 O.co2     1 ACP         0.3195
      4 O3G        -1.6052   -5.7402   -0.1351 O.3       1 ACP         0.0326
      5 PB         -1.2397   -3.2626   -2.6507 P.3       1 ACP        -1.2804
      6 O1B        -2.0742   -2.3102   -3.4750 O.co2     1 ACP         0.3195
      7 O2B        -1.0448   -4.7086   -3.0447 O.co2     1 ACP         0.3195
      8 C3B        -1.9204   -3.2483   -0.9330 C.3       1 ACP         0.8942
      9 PA          1.5537   -2.4539   -3.2418 P.3       1 ACP        -1.1062
     10 O1A         1.2540   -1.5265   -4.3993 O.co2     1 ACP         0.3195
     11 O2A         2.1054   -3.8415   -3.4886 O.co2     1 ACP         0.3195
     12 O3A         0.2083   -2.5875   -2.3259 O.3       1 ACP         0.4672
     13 O5'         2.5237   -1.6631   -2.1889 O.3       1 ACP         0.1618
     14 C5'         2.2816   -0.2918   -1.9206 C.3       1 ACP         0.1504
     15 C4'         2.7248    0.0226   -0.4980 C.3       1 ACP         0.1111
     16 O4'         2.4697    1.4219   -0.2462 O.3       1 ACP        -0.1436
     17 C3'         1.9404   -0.7419    0.5596 C.3       1 ACP         0.1111
     18 O3'         2.7418   -0.8086    1.7389 O.3       1 ACP        -0.2728
     19 C2'         0.7477    0.1630    0.7858 C.3       1 ACP         0.1111
     20 O2'         0.1373   -0.0577    2.0407 O.3       1 ACP        -0.2728
     21 C1'         1.3733    1.5427    0.6747 C.3       1 ACP         0.2693
     22 N9          0.4520    2.5240    0.1767 N.pl3     1 ACP        -0.3222
     23 C8         -1.0660    2.5608    0.3999 C.ar      1 ACP         0.1640
     24 N7         -1.5852    3.6333   -0.2221 N.2       1 ACP        -0.1640
     25 C5         -0.4682    4.1996   -0.7771 C.ar      1 ACP         0.0820
     26 C6         -0.5216    5.4476   -1.5899 C.ar      1 ACP         0.1640
     27 N6         -1.6813    6.0510   -1.7982 N.pl3     1 ACP        -0.4916
     28 N1          0.6621    5.8575   -2.0523 N.pl3     1 ACP        -0.4390
     29 C2          1.8795    5.1301   -1.7717 C.ar      1 ACP         0.5691
     30 N3          1.9458    4.0434   -1.0670 N.ar      1 ACP        -0.4283
     31 C4          0.7388    3.6199   -0.5917 C.ar      1 ACP         0.2226
     32 HOG3       -1.4641   -6.5200    0.4430 H         1 ACP         0.2010
     33 H3B1       -1.8816   -2.2079   -0.5918 H         1 ACP        -0.0393
     34 H3B2       -2.9769   -3.5247   -1.0216 H         1 ACP        -0.0393
     35 H5'1        2.8429    0.3140   -2.6391 H         1 ACP        -0.0393
     36 H5'2        1.2125   -0.0906   -2.0420 H         1 ACP        -0.0393
     37 H4'         3.8046   -0.1390   -0.4011 H         1 ACP        -0.0393
     38 H3'         1.6787   -1.7627    0.2719 H         1 ACP        -0.0393
     39 HO3'        2.2231   -1.2979    2.3952 H         1 ACP         0.2010
     40 H2'         0.0002   -0.0084   -0.0014 H         1 ACP        -0.0393
     41 HO2'       -0.1554   -0.9852    2.0577 H         1 ACP         0.2010
     42 H1'         1.7718    1.9211    1.6015 H         1 ACP        -0.0393
     43 H8         -1.7235    1.8833    0.9537 H         1 ACP         0.0000
     44 HN61       -2.5296    5.6672   -1.4072 H         1 ACP         0.2048
     45 HN62       -1.7205    6.8969   -2.3483 H         1 ACP         0.2048
     46 H2          2.7750    5.5878   -2.2190 H         1 ACP        -0.1292
     47 H47         0.6808    6.7046   -2.6128 H         1 ACP         0.2048
@<TRIPOS>BOND
     1    1    2 2
     2    1    3 1
     3    1    4 1
     4    1    8 1
     5    4   32 1
     6    5    6 2
     7    5    7 1
     8    5    8 1
     9    5   12 1
    10    8   33 1
    11    8   34 1
    12    9   10 2
    13    9   11 1
    14    9   12 1
    15    9   13 1
    16   13   14 1
    17   14   15 1
    18   14   35 1
    19   14   36 1
    20   15   16 1
    21   15   17 1
    22   15   37 1
    23   16   21 1
    24   17   18 1
    25   17   19 1
    26   17   38 1
    27   18   39 1
    28   19   20 1
    29   19   21 1
    30   19   40 1
    31   20   41 1
    32   21   22 1
    33   21   42 1
    34   22   23 ar
    35   22   31 ar
    36   23   24 ar
    37   23   43 1
    38   24   25 ar
    39   25   26 ar
    40   25   31 ar
    41   26   27 1
    42   26   28 ar
    43   27   44 1
    44   27   45 1
    45   28   29 ar
    46   28   47 1
    47   29   30 ar
    48   29   46 1
    49   30   31 ar
@<TRIPOS>SUBSTRUCTURE
     1 ACP         1 GROUP 0 A     ****
@<TRIPOS>MOLECULE
[[5-(6-amino-1,8-dihydropurine-6,8-diylium-7-id-9-yl)-3,4-dihydroxy-tetrahydrofuran-2-yl]methoxy-oxido-phosphoryl]oxy-[[hydroxy(oxido)phosphoryl]methyl]phosphinate
   47    49     1     0     0
SMALL
USER_CHARGES

@<TRIPOS>ATOM
      1 PG         -1.1176   -1.3711   -6.8940 P.3       1 ACP        -1.2804
      2 O1G        -1.7941   -0.2323   -7.6208 O.co2     1 ACP         0.3195
      3 O2G        -1.7623   -2.0704   -5.7195 O.co2     1 ACP         0.3195
      4 O3G        -0.6172   -2.4836   -7.9765 O.3       1 ACP         0.0326
      5 PB          1.7357   -1.8251   -5.4014 P.3       1 ACP        -1.2804
      6 O1B         2.9625   -0.9848   -5.1341 O.co2     1 ACP         0.3195
      7 O2B         1.8124   -3.1581   -6.1094 O.co2     1 ACP         0.3195
      8 C3B         0.5397   -0.7736   -6.3385 C.3       1 ACP         0.8942
      9 PA          1.2676   -2.6330   -2.5845 P.3       1 ACP        -1.1062
     10 O1A         1.8014   -4.0298   -2.8163 O.co2     1 ACP         0.3195
     11 O2A         0.1253   -2.3943   -1.6209 O.co2     1 ACP         0.3195
     12 O3A         0.8686   -1.9867   -4.0302 O.3       1 ACP         0.4672
     13 O5'         2.5237   -1.6631   -2.1889 O.3       1 ACP         0.1618
     14 C5'         2.2816   -0.2918   -1.9206 C.3       1 ACP         0.1504
     15 C4'         2.7248    0.0226   -0.4980 C.3       1 ACP         0.1111
     16 O4'         2.4697    1.4219   -0.2462 O.3       1 ACP        -0.1436
     17 C3'         1.9404   -0.7419    0.5596 C.3       1 ACP         0.1111
     18 O3'         2.7418   -0.8086    1.7389 O.3       1 ACP        -0.2728
     19 C2'         0.7477    0.1630    0.7858 C.3       1 ACP         0.1111
     20 O2'         0.1373   -0.0577    2.0407 O.3       1 ACP        -0.2728
     21 C1'         1.3733    1.5427    0.6747 C.3       1 ACP         0.2693
     22 N9          0.4520    2.5240    0.1767 N.pl3     1 ACP        -0.3222
     23 C8          0.1798    2.8712   -1.2933 C.ar      1 ACP         0.1640
     24 N7         -0.7494    3.8400   -1.3610 N.2       1 ACP        -0.1640
     25 C5         -1.0173    4.0603   -0.0358 C.ar      1 ACP         0.0820
     26 C6         -2.0105    5.0717    0.4241 C.ar      1 ACP         0.1640
     27 N6         -2.6723    5.7982   -0.4628 N.pl3     1 ACP        -0.4916
     28 N1         -2.1445    5.1522    1.7502 N.pl3     1 ACP        -0.4390
     29 C2         -1.3755    4.3143    2.6426 C.ar      1 ACP         0.5691
     30 N3         -0.5075    3.4292    2.2616 N.ar      1 ACP        -0.4283
     31 C4         -0.3667    3.3425    0.9070 C.ar      1 ACP         0.2226
     32 HOG3       -1.2875   -2.9138   -8.5490 H         1 ACP         0.2010
     33 H3B1        0.3513    0.1105   -5.7193 H         1 ACP        -0.0393
     34 H3B2        1.0687   -0.4373   -7.2371 H         1 ACP        -0.0393
     35 H5'1        2.8429    0.3140   -2.6391 H         1 ACP        -0.0393
     36 H5'2        1.2125   -0.0906   -2.0420 H         1 ACP        -0.0393
     37 H4'         3.8046   -0.1390   -0.4011 H         1 ACP        -0.0393
     38 H3'         1.6787   -1.7627    0.2719 H         1 ACP        -0.0393
     39 HO3'        2.2231   -1.2979    2.3952 H         1 ACP         0.2010
     40 H2'         0.0002   -0.0084   -0.0014 H         1 ACP        -0.0393
     41 HO2'       -0.1554   -0.9852    2.0577 H         1 ACP         0.2010
     42 H1'         1.7718    1.9211    1.6015 H         1 ACP        -0.0393
     43 H8          0.6089    2.4651   -2.2147 H         1 ACP         0.0000
     44 HN61       -2.5055    5.6680   -1.4503 H         1 ACP         0.2048
     45 HN62       -3.3462    6.4841   -0.1542 H         1 ACP         0.2048
     46 H2         -1.5932    4.4937    3.7066 H         1 ACP        -0.1292
     47 H47        -2.8098    5.8270    2.1160 H         1 ACP         0.2048
@<TRIPOS>BOND
     1    1    2 2
     2    1    3 1
     3    1    4 1
     4    1    8 1
     5    4   32 1
     6    5    6 2
     7    5    7 1
     8    5    8 1
     9    5   12 1
    10    8   33 1
    11    8   34 1
    12    9   10 2
    13    9   11 1
    14    9   12 1
    15    9   13 1
    16   13   14 1
    17   14   15 1
    18   14   35 1
    19   14   36 1
    20   15   16 1
    21   15   17 1
    22   15   37 1
    23   16   21 1
    24   17   18 1
    25   17   19 1
    26   17   38 1
    27   18   39 1
    28   19   20 1
    29   19   21 1
    30   19   40 1
    31   20   41 1
    32   21   22 1
    33   21   42 1
    34   22   23 ar
    35   22   31 ar
    36   23   24 ar
    37   23   43 1
    38   24   25 ar
    39   25   26 ar
    40   25   31 ar
    41   26   27 1
    42   26   28 ar
    43   27   44 1
    44   27   45 1
    45   28   29 ar
    46   28   47 1
    47   29   30 ar
    48   29   46 1
    49   30   31 ar
@<TRIPOS>SUBSTRUCTURE
     1 ACP         1 GROUP 0 A     ****
@<TRIPOS>MOLECULE
[[5-(6-amino-1,8-dihydropurine-6,8-diylium-7-id-9-yl)-3,4-dihydroxy-tetrahydrofuran-2-yl]methoxy-oxido-phosphoryl]oxy-[[hydroxy(oxido)phosphoryl]methyl]phosphinate
   47    49     1     0     0
SMALL
USER_CHARGES

@<TRIPOS>ATOM
      1 PG          2.0778    1.3109   -6.2409 P.3       1 ACP        -1.2804
      2 O1G         3.0272    2.0854   -5.3567 O.co2     1 ACP         0.3195
      3 O2G         0.6574    1.0075   -5.8230 O.co2     1 ACP         0.3195
      4 O3G         2.0731    1.9651   -7.7348 O.3       1 ACP         0.0326
      5 PB          3.3936   -1.5362   -5.3818 P.3       1 ACP        -1.2804
      6 O1B         4.3914   -0.8627   -4.4688 O.co2     1 ACP         0.3195
      7 O2B         3.7091   -2.8235   -6.1081 O.co2     1 ACP         0.3195
      8 C3B         2.8865   -0.2973   -6.6554 C.3       1 ACP         0.8942
      9 PA          1.5537   -2.4539   -3.2418 P.3       1 ACP        -1.1062
     10 O1A         2.0300   -3.8868   -3.3414 O.co2     1 ACP         0.3195
     11 O2A         0.1072   -2.1427   -2.9238 O.co2     1 ACP         0.3195
     12 O3A         1.9587   -1.6787   -4.6209 O.3       1 ACP         0.4672
     13 O5'         2.5237   -1.6631   -2.1889 O.3       1 ACP         0.1618
     14 C5'         2.2816   -0.2918   -1.9206 C.3       1 ACP         0.1504
     15 C4'         2.7248    0.0226   -0.4980 C.3       1 ACP         0.1111
     16 O4'         2.4697    1.4219   -0.2462 O.3       1 ACP        -0.1436
     17 C3'         1.9404   -0.7419    0.5596 C.3       1 ACP         0.1111
     18 O3'         2.7418   -0.8086    1.7389 O.3       1 ACP        -0.2728
     19 C2'         0.7477    0.1630    0.7858 C.3       1 ACP         0.1111
     20 O2'         0.1373   -0.0577    2.0407 O.3       1 ACP        -0.2728
     21 C1'         1.3733    1.5427    0.6747 C.3       1 ACP         0.2693
     22 N9          0.4520    2.5240    0.1767 N.pl3     1 ACP        -0.3222
     23 C8          0.5793    3.3338   -1.1209 C.ar      1 ACP         0.1640
     24 N7         -0.4807    4.1508   -1.2458 N.2       1 ACP        -0.1640
     25 C5         -1.1921    3.8572   -0.1126 C.ar      1 ACP         0.0820
     26 C6         -2.4855    4.5203    0.2163 C.ar      1 ACP         0.1640
     27 N6         -2.9873    5.4319   -0.6020 N.pl3     1 ACP        -0.4916
     28 N1         -3.0414    4.1119    1.3596 N.pl3     1 ACP        -0.4390
     29 C2         -2.4169    3.1071    2.1904 C.ar      1 ACP         0.5691
     30 N3         -1.2928    2.5191    1.9210 N.ar      1 ACP        -0.4283
     31 C4         -0.7202    2.9326    0.7534 C.ar      1 ACP         0.2226
     32 HOG3        1.8010    2.9023   -7.8342 H         1 ACP         0.2010
     33 H3B1        3.7903   -0.0453   -7.2212 H         1 ACP        -0.0393
     34 H3B2        2.2086   -0.8219   -7.3379 H         1 ACP        -0.0393
     35 H5'1        2.8429    0.3140   -2.6391 H         1 ACP        -0.0393
     36 H5'2        1.2125   -0.0906   -2.0420 H         1 ACP        -0.0393
     37 H4'         3.8046   -0.1390   -0.4011 H         1 ACP        -0.0393
     38 H3'         1.6787   -1.7627    0.2719 H         1 ACP        -0.0393
     39 HO3'        2.2231   -1.2979    2.3952 H         1 ACP         0.2010
     40 H2'         0.0002   -0.0084   -0.0014 H         1 ACP        -0.0393
     41 HO2'       -0.1554   -0.9852    2.0577 H         1 ACP         0.2010
     42 H1'         1.7718    1.9211    1.6015 H         1 ACP        -0.0393
     43 H8          1.3565    3.3309   -1.8916 H         1 ACP         0.0000
     44 HN61       -2.4952    5.6785   -1.4487 H         1 ACP         0.2048
     45 HN62       -3.8637    5.8828   -0.3819 H         1 ACP         0.2048
     46 H2         -2.9911    2.8734    3.1000 H         1 ACP        -0.1292
     47 H47        -3.9253    4.5332    1.6302 H         1 ACP         0.2048
@<TRIPOS>BOND
     1    1    2 2
     2    1    3 1
     3    1    4 1
     4    1    8 1
     5    4   32 1
     6    5    6 2
     7    5    7 1
     8    5    8 1
     9    5   12 1
    10    8   33 1
    11    8   34 1
    12    9   10 2
    13    9   11 1
    14    9   12 1
    15    9   13 1
    16   13   14 1
    17   14   15 1
    18   14   35 1
    19   14   36 1
    20   15   16 1
    21   15   17 1
    22   15   37 1
    23   16   21 1
    24   17   18 1
    25   17   19 1
    26   17   38 1
    27   18   39 1
    28   19   20 1
    29   19   21 1
    30   19   40 1
    31   20   41 1
    32   21   22 1
    33   21   42 1
    34   22   23 ar
    35   22   31 ar
    36   23   24 ar
    37   23   43 1
    38   24   25 ar
    39   25   26 ar
    40   25   31 ar
    41   26   27 1
    42   26   28 ar
    43   27   44 1
    44   27   45 1
    45   28   29 ar
    46   28   47 1
    47   29   30 ar
    48   29   46 1
    49   30   31 ar
@<TRIPOS>SUBSTRUCTURE
     1 ACP         1 GROUP 0 A     ****
@<TRIPOS>MOLECULE
[[5-(6-amino-1,8-dihydropurine-6,8-diylium-7-id-9-yl)-3,4-dihydroxy-tetrahydrofuran-2-yl]methoxy-oxido-phosphoryl]oxy-[[hydroxy(oxido)phosphoryl]methyl]phosphinate
   47    49     1     0     0
SMALL
USER_CHARGES

@<TRIPOS>ATOM
      1 PG         -1.3288   -1.3352   -4.5948 P.3       1 ACP        -1.2804
      2 O1G        -2.5178   -1.9343   -5.3090 O.co2     1 ACP         0.3195
      3 O2G        -1.4087   -0.8566   -3.1634 O.co2     1 ACP         0.3195
      4 O3G        -0.0417   -2.3226   -4.7630 O.3       1 ACP         0.0326
      5 PB          0.7311    1.1214   -5.1398 P.3       1 ACP        -1.2804
      6 O1B         0.4103    1.7589   -3.8082 O.co2     1 ACP         0.3195
      7 O2B         1.1129    1.9393   -6.3521 O.co2     1 ACP         0.3195
      8 C3B        -0.7174    0.0777   -5.6157 C.3       1 ACP         0.8942
      9 PA          3.3324   -0.0529   -4.3266 P.3       1 ACP        -1.1062
     10 O1A         4.1264    0.9964   -5.0738 O.co2     1 ACP         0.3195
     11 O2A         3.8347   -1.4774   -4.2320 O.co2     1 ACP         0.3195
     12 O3A         1.8151   -0.0782   -4.9299 O.3       1 ACP         0.4672
     13 O5'         3.0198    0.5138   -2.8245 O.3       1 ACP         0.1618
     14 C5'         2.2816   -0.2918   -1.9206 C.3       1 ACP         0.1504
     15 C4'         2.7248    0.0226   -0.4980 C.3       1 ACP         0.1111
     16 O4'         2.4697    1.4219   -0.2462 O.3       1 ACP        -0.1436
     17 C3'         1.9404   -0.7419    0.5596 C.3       1 ACP         0.1111
     18 O3'         2.7418   -0.8086    1.7389 O.3       1 ACP        -0.2728
     19 C2'         0.7477    0.1630    0.7858 C.3       1 ACP         0.1111
     20 O2'         0.1373   -0.0577    2.0407 O.3       1 ACP        -0.2728
     21 C1'         1.3733    1.5427    0.6747 C.3       1 ACP         0.2693
     22 N9          0.4520    2.5240    0.1767 N.pl3     1 ACP        -0.3222
     23 C8         -0.7463    2.2774   -0.7501 C.ar      1 ACP         0.1640
     24 N7         -1.3714    3.4419   -0.9948 N.2       1 ACP        -0.1640
     25 C5         -0.6104    4.3223   -0.2723 C.ar      1 ACP         0.0820
     26 C6         -0.9062    5.7820   -0.2194 C.ar      1 ACP         0.1640
     27 N6         -1.9385    6.2713   -0.8881 N.pl3     1 ACP        -0.4916
     28 N1         -0.0613    6.4906    0.5336 N.pl3     1 ACP        -0.4390
     29 C2          1.0416    5.8662    1.2291 C.ar      1 ACP         0.5691
     30 N3          1.3146    4.5989    1.1954 N.ar      1 ACP        -0.4283
     31 C4          0.4541    3.8697    0.4273 C.ar      1 ACP         0.2226
     32 HOG3       -0.1066   -3.2386   -4.4180 H         1 ACP         0.2010
     33 H3B1       -1.5676    0.7593   -5.7300 H         1 ACP        -0.0393
     34 H3B2       -0.4878   -0.3285   -6.6070 H         1 ACP        -0.0393
     35 H5'1        1.2153   -0.0781   -2.0454 H         1 ACP        -0.0393
     36 H5'2        2.4645   -1.3454   -2.1547 H         1 ACP        -0.0393
     37 H4'         3.8046   -0.1390   -0.4011 H         1 ACP        -0.0393
     38 H3'         1.6787   -1.7627    0.2719 H         1 ACP        -0.0393
     39 HO3'        2.2231   -1.2979    2.3952 H         1 ACP         0.2010
     40 H2'         0.0002   -0.0084   -0.0014 H         1 ACP        -0.0393
     41 HO2'       -0.6132    0.5577    2.1063 H         1 ACP         0.2010
     42 H1'         1.7718    1.9211    1.6015 H         1 ACP        -0.0393
     43 H8         -1.1244    1.3534   -1.1987 H         1 ACP         0.0000
     44 HN61       -2.5259    5.6573   -1.4336 H         1 ACP         0.2048
     45 HN62       -2.1416    7.2600   -0.8539 H         1 ACP         0.2048
     46 H2          1.6509    6.5764    1.8088 H         1 ACP        -0.1292
     47 H47        -0.2190    7.4917    0.6033 H         1 ACP         0.2048
@<TRIPOS>BOND
     1    1    2 2
     2    1    3 1
     3    1    4 1
     4    1    8 1
     5    4   32 1
     6    5    6 2
     7    5    7 1
     8    5    8 1
     9    5   12 1
    10    8   33 1
    11    8   34 1
    12    9   10 2
    13    9   11 1
    14    9   12 1
    15    9   13 1
    16   13   14 1
    17   14   15 1
    18   14   35 1
    19   14   36 1
    20   15   16 1
    21   15   17 1
    22   15   37 1
    23   16   21 1
    24   17   18 1
    25   17   19 1
    26   17   38 1
    27   18   39 1
    28   19   20 1
    29   19   21 1
    30   19   40 1
    31   20   41 1
    32   21   22 1
    33   21   42 1
    34   22   23 ar
    35   22   31 ar
    36   23   24 ar
    37   23   43 1
    38   24   25 ar
    39   25   26 ar
    40   25   31 ar
    41   26   27 1
    42   26   28 ar
    43   27   44 1
    44   27   45 1
    45   28   29 ar
    46   28   47 1
    47   29   30 ar
    48   29   46 1
    49   30   31 ar
@<TRIPOS>SUBSTRUCTURE
     1 ACP         1 GROUP 0 A     ****
@<TRIPOS>MOLECULE
[[5-(6-amino-1,8-dihydropurine-6,8-diylium-7-id-9-yl)-3,4-dihydroxy-tetrahydrofuran-2-yl]methoxy-oxido-phosphoryl]oxy-[[hydroxy(oxido)phosphoryl]methyl]phosphinate
   47    49     1     0     0
SMALL
USER_CHARGES

@<TRIPOS>ATOM
      1 PG          0.7380   -3.8610   -4.4650 P.3       1 ACP        -1.2804
      2 O1G        -0.1777   -4.8173   -5.1929 O.co2     1 ACP         0.3195
      3 O2G         0.2212   -2.6137   -3.7858 O.co2     1 ACP         0.3195
      4 O3G         1.6744   -4.6952   -3.4224 O.3       1 ACP         0.0326
      5 PB          3.4120   -2.1648   -5.2052 P.3       1 ACP        -1.2804
      6 O1B         4.2789   -1.9920   -6.4305 O.co2     1 ACP         0.3195
      7 O2B         3.9769   -2.6131   -3.8770 O.co2     1 ACP         0.3195
      8 C3B         2.0558   -3.3386   -5.6493 C.3       1 ACP         0.8942
      9 PA          2.8601    0.6157   -4.3273 P.3       1 ACP        -1.1062
     10 O1A         1.5863    1.4256   -4.2209 O.co2     1 ACP         0.3195
     11 O2A         4.0722    1.1753   -5.0401 O.co2     1 ACP         0.3195
     12 O3A         2.4963   -0.8339   -4.9854 O.3       1 ACP         0.4672
     13 O5'         3.2883    0.1336   -2.8242 O.3       1 ACP         0.1618
     14 C5'         2.2816   -0.2918   -1.9206 C.3       1 ACP         0.1504
     15 C4'         2.7248    0.0226   -0.4980 C.3       1 ACP         0.1111
     16 O4'         2.4697    1.4219   -0.2462 O.3       1 ACP        -0.1436
     17 C3'         1.9404   -0.7419    0.5596 C.3       1 ACP         0.1111
     18 O3'         2.7418   -0.8086    1.7389 O.3       1 ACP        -0.2728
     19 C2'         0.7477    0.1630    0.7858 C.3       1 ACP         0.1111
     20 O2'         0.1373   -0.0577    2.0407 O.3       1 ACP        -0.2728
     21 C1'         1.3733    1.5427    0.6747 C.3       1 ACP         0.2693
     22 N9          0.4520    2.5240    0.1767 N.pl3     1 ACP        -0.3222
     23 C8          0.1798    2.8712   -1.2933 C.ar      1 ACP         0.1640
     24 N7         -0.7494    3.8400   -1.3610 N.2       1 ACP        -0.1640
     25 C5         -1.0173    4.0603   -0.0358 C.ar      1 ACP         0.0820
     26 C6         -2.0105    5.0717    0.4241 C.ar      1 ACP         0.1640
     27 N6         -2.6723    5.7982   -0.4628 N.pl3     1 ACP        -0.4916
     28 N1         -2.1445    5.1522    1.7502 N.pl3     1 ACP        -0.4390
     29 C2         -1.3755    4.3143    2.6426 C.ar      1 ACP         0.5691
     30 N3         -0.5075    3.4292    2.2616 N.ar      1 ACP        -0.4283
     31 C4         -0.3667    3.3425    0.9070 C.ar      1 ACP         0.2226
     32 HOG3        1.2377   -5.2137   -2.7133 H         1 ACP         0.2010
     33 H3B1        1.5353   -2.9016   -6.5087 H         1 ACP        -0.0393
     34 H3B2        2.5470   -4.2548   -5.9954 H         1 ACP        -0.0393
     35 H5'1        1.3500    0.2325   -2.1560 H         1 ACP        -0.0393
     36 H5'2        2.1267   -1.3683   -2.0444 H         1 ACP        -0.0393
     37 H4'         3.8046   -0.1390   -0.4011 H         1 ACP        -0.0393
     38 H3'         1.6787   -1.7627    0.2719 H         1 ACP        -0.0393
     39 HO3'        2.2231   -1.2979    2.3952 H         1 ACP         0.2010
     40 H2'         0.0002   -0.0084   -0.0014 H         1 ACP        -0.0393
     41 HO2'       -0.1554   -0.9852    2.0577 H         1 ACP         0.2010
     42 H1'         1.7718    1.9211    1.6015 H         1 ACP        -0.0393
     43 H8          0.6089    2.4651   -2.2147 H         1 ACP         0.0000
     44 HN61       -2.5055    5.6680   -1.4503 H         1 ACP         0.2048
     45 HN62       -3.3462    6.4841   -0.1542 H         1 ACP         0.2048
     46 H2         -1.5932    4.4937    3.7066 H         1 ACP        -0.1292
     47 H47        -2.8098    5.8270    2.1160 H         1 ACP         0.2048
@<TRIPOS>BOND
     1    1    2 2
     2    1    3 1
     3    1    4 1
     4    1    8 1
     5    4   32 1
     6    5    6 2
     7    5    7 1
     8    5    8 1
     9    5   12 1
    10    8   33 1
    11    8   34 1
    12    9   10 2
    13    9   11 1
    14    9   12 1
    15    9   13 1
    16   13   14 1
    17   14   15 1
    18   14   35 1
    19   14   36 1
    20   15   16 1
    21   15   17 1
    22   15   37 1
    23   16   21 1
    24   17   18 1
    25   17   19 1
    26   17   38 1
    27   18   39 1
    28   19   20 1
    29   19   21 1
    30   19   40 1
    31   20   41 1
    32   21   22 1
    33   21   42 1
    34   22   23 ar
    35   22   31 ar
    36   23   24 ar
    37   23   43 1
    38   24   25 ar
    39   25   26 ar
    40   25   31 ar
    41   26   27 1
    42   26   28 ar
    43   27   44 1
    44   27   45 1
    45   28   29 ar
    46   28   47 1
    47   29   30 ar
    48   29   46 1
    49   30   31 ar
@<TRIPOS>SUBSTRUCTURE
     1 ACP         1 GROUP 0 A     ****
@<TRIPOS>MOLECULE
[[5-(6-amino-1,8-dihydropurine-6,8-diylium-7-id-9-yl)-3,4-dihydroxy-tetrahydrofuran-2-yl]methoxy-oxido-phosphoryl]oxy-[[hydroxy(oxido)phosphoryl]methyl]phosphinate
   47    49     1     0     0
SMALL
USER_CHARGES

@<TRIPOS>ATOM
      1 PG          3.2358    1.1595   -6.3130 P.3       1 ACP        -1.2804
      2 O1G         4.4622    1.9887   -6.0110 O.co2     1 ACP         0.3195
      3 O2G         2.1052    1.0065   -5.3218 O.co2     1 ACP         0.3195
      4 O3G         2.6283    1.5984   -7.7615 O.3       1 ACP         0.0326
      5 PB          4.7841   -1.6168   -5.6274 P.3       1 ACP        -1.2804
      6 O1B         6.0663   -0.8863   -5.3033 O.co2     1 ACP         0.3195
      7 O2B         4.7781   -3.0099   -6.2136 O.co2     1 ACP         0.3195
      8 C3B         3.8066   -0.5381   -6.7653 C.3       1 ACP         0.8942
      9 PA          3.9654   -2.1111   -2.8181 P.3       1 ACP        -1.1062
     10 O1A         5.0498   -1.2970   -2.1465 O.co2     1 ACP         0.3195
     11 O2A         4.0486   -3.6217   -2.8585 O.co2     1 ACP         0.3195
     12 O3A         3.7791   -1.5622   -4.3449 O.3       1 ACP         0.4672
     13 O5'         2.5237   -1.6631   -2.1889 O.3       1 ACP         0.1618
     14 C5'         2.2816   -0.2918   -1.9206 C.3       1 ACP         0.1504
     15 C4'         2.7248    0.0226   -0.4980 C.3       1 ACP         0.1111
     16 O4'         2.4697    1.4219   -0.2462 O.3       1 ACP        -0.1436
     17 C3'         1.9404   -0.7419    0.5596 C.3       1 ACP         0.1111
     18 O3'         2.7418   -0.8086    1.7389 O.3       1 ACP        -0.2728
     19 C2'         0.7477    0.1630    0.7858 C.3       1 ACP         0.1111
     20 O2'         0.1373   -0.0577    2.0407 O.3       1 ACP        -0.2728
     21 C1'         1.3733    1.5427    0.6747 C.3       1 ACP         0.2693
     22 N9          0.4520    2.5240    0.1767 N.pl3     1 ACP        -0.3222
     23 C8          0.1798    2.8712   -1.2933 C.ar      1 ACP         0.1640
     24 N7         -0.7494    3.8400   -1.3610 N.2       1 ACP        -0.1640
     25 C5         -1.0173    4.0603   -0.0358 C.ar      1 ACP         0.0820
     26 C6         -2.0105    5.0717    0.4241 C.ar      1 ACP         0.1640
     27 N6         -2.6723    5.7982   -0.4628 N.pl3     1 ACP        -0.4916
     28 N1         -2.1445    5.1522    1.7502 N.pl3     1 ACP        -0.4390
     29 C2         -1.3755    4.3143    2.6426 C.ar      1 ACP         0.5691
     30 N3         -0.5075    3.4292    2.2616 N.ar      1 ACP        -0.4283
     31 C4         -0.3667    3.3425    0.9070 C.ar      1 ACP         0.2226
     32 HOG3        2.3400    2.5277   -7.8857 H         1 ACP         0.2010
     33 H3B1        4.4048   -0.4242   -7.6762 H         1 ACP        -0.0393
     34 H3B2        2.9103   -1.1092   -7.0316 H         1 ACP        -0.0393
     35 H5'1        2.8429    0.3140   -2.6391 H         1 ACP        -0.0393
     36 H5'2        1.2125   -0.0906   -2.0420 H         1 ACP        -0.0393
     37 H4'         3.8046   -0.1390   -0.4011 H         1 ACP        -0.0393
     38 H3'         1.6787   -1.7627    0.2719 H         1 ACP        -0.0393
     39 HO3'        2.2231   -1.2979    2.3952 H         1 ACP         0.2010
     40 H2'         0.0002   -0.0084   -0.0014 H         1 ACP        -0.0393
     41 HO2'       -0.6132    0.5577    2.1063 H         1 ACP         0.2010
     42 H1'         1.7718    1.9211    1.6015 H         1 ACP        -0.0393
     43 H8          0.6089    2.4651   -2.2147 H         1 ACP         0.0000
     44 HN61       -2.5055    5.6680   -1.4503 H         1 ACP         0.2048
     45 HN62       -3.3462    6.4841   -0.1542 H         1 ACP         0.2048
     46 H2         -1.5932    4.4937    3.7066 H         1 ACP        -0.1292
     47 H47        -2.8098    5.8270    2.1160 H         1 ACP         0.2048
@<TRIPOS>BOND
     1    1    2 2
     2    1    3 1
     3    1    4 1
     4    1    8 1
     5    4   32 1
     6    5    6 2
     7    5    7 1
     8    5    8 1
     9    5   12 1
    10    8   33 1
    11    8   34 1
    12    9   10 2
    13    9   11 1
    14    9   12 1
    15    9   13 1
    16   13   14 1
    17   14   15 1
    18   14   35 1
    19   14   36 1
    20   15   16 1
    21   15   17 1
    22   15   37 1
    23   16   21 1
    24   17   18 1
    25   17   19 1
    26   17   38 1
    27   18   39 1
    28   19   20 1
    29   19   21 1
    30   19   40 1
    31   20   41 1
    32   21   22 1
    33   21   42 1
    34   22   23 ar
    35   22   31 ar
    36   23   24 ar
    37   23   43 1
    38   24   25 ar
    39   25   26 ar
    40   25   31 ar
    41   26   27 1
    42   26   28 ar
    43   27   44 1
    44   27   45 1
    45   28   29 ar
    46   28   47 1
    47   29   30 ar
    48   29   46 1
    49   30   31 ar
@<TRIPOS>SUBSTRUCTURE
     1 ACP         1 GROUP 0 A     ****
@<TRIPOS>MOLECULE
[[5-(6-amino-1,8-dihydropurine-6,8-diylium-7-id-9-yl)-3,4-dihydroxy-tetrahydrofuran-2-yl]methoxy-oxido-phosphoryl]oxy-[[hydroxy(oxido)phosphoryl]methyl]phosphinate
   47    49     1     0     0
SMALL
USER_CHARGES

@<TRIPOS>ATOM
      1 PG         -6.3142   -6.2985    3.2599 P.3       1 ACP        -1.2804
      2 O1G        -7.5214   -5.4033    3.4153 O.co2     1 ACP         0.3195
      3 O2G        -5.4184   -6.6490    4.4257 O.co2     1 ACP         0.3195
      4 O3G        -6.7493   -7.6650    2.4833 O.3       1 ACP         0.0326
      5 PB         -3.6463   -6.3235    1.4006 P.3       1 ACP        -1.2804
      6 O1B        -3.0762   -5.4413    0.3145 O.co2     1 ACP         0.3195
      7 O2B        -3.8936   -7.7997    1.1907 O.co2     1 ACP         0.3195
      8 C3B        -5.2445   -5.5704    1.9416 C.3       1 ACP         0.8942
      9 PA         -1.2314   -6.3276    3.1254 P.3       1 ACP        -1.1062
     10 O1A        -0.8495   -7.7340    2.7182 O.co2     1 ACP         0.3195
     11 O2A        -0.9696   -5.8343    4.5320 O.co2     1 ACP         0.3195
     12 O3A        -2.8126   -6.1031    2.7842 O.3       1 ACP         0.4672
     13 O5'        -0.5697   -5.2855    2.0524 O.3       1 ACP         0.1618
     14 C5'        -0.7840   -3.8935    2.2172 C.3       1 ACP         0.1504
     15 C4'        -0.0724   -3.1466    1.1027 C.3       1 ACP         0.1111
     16 O4'        -0.8674   -3.1929   -0.0945 O.3       1 ACP        -0.1436
     17 C3'         0.1338   -1.6715    1.4027 C.3       1 ACP         0.1111
     18 O3'         1.2893   -1.4445    2.1808 O.3       1 ACP        -0.2728
     19 C2'         0.2158   -1.0724    0.0128 C.3       1 ACP         0.1111
     20 O2'         1.5141   -1.2448   -0.5513 O.3       1 ACP        -0.2728
     21 C1'        -0.7897   -1.9176   -0.7583 C.3       1 ACP         0.2693
     22 N9         -2.1040   -1.3333   -0.7704 N.pl3     1 ACP        -0.3222
     23 C8         -3.2124   -1.5345    0.2719 C.ar      1 ACP         0.1640
     24 N7         -4.2964   -0.8234   -0.0828 N.2       1 ACP        -0.1640
     25 C5         -3.8754   -0.2386   -1.2478 C.ar      1 ACP         0.0820
     26 C6         -4.7432    0.6719   -2.0470 C.ar      1 ACP         0.1640
     27 N6         -5.9725    0.9415   -1.6366 N.pl3     1 ACP        -0.4916
     28 N1         -4.1703    1.1517   -3.1536 N.pl3     1 ACP        -0.4390
     29 C2         -2.8174    0.7994   -3.5215 C.ar      1 ACP         0.5691
     30 N3         -2.0475    0.0097   -2.8393 N.ar      1 ACP        -0.4283
     31 C4         -2.6278   -0.4836   -1.7071 C.ar      1 ACP         0.2226
     32 HOG3       -7.4350   -8.2363    2.8904 H         1 ACP         0.2010
     33 H3B1       -5.0129   -4.5504    2.2680 H         1 ACP        -0.0393
     34 H3B2       -5.8650   -5.4933    1.0419 H         1 ACP        -0.0393
     35 H5'1       -1.8599   -3.6946    2.1849 H         1 ACP        -0.0393
     36 H5'2       -0.3934   -3.5881    3.1930 H         1 ACP        -0.0393
     37 H4'         0.8883   -3.6447    0.8783 H         1 ACP        -0.0393
     38 H3'        -0.7368   -1.2359    1.9871 H         1 ACP        -0.0393
     39 HO3'        1.3407   -0.4871    2.3218 H         1 ACP         0.2010
     40 H2'        -0.0343   -0.0280    0.0196 H         1 ACP        -0.0393
     41 HO2'        2.1443   -0.7955    0.0378 H         1 ACP         0.2010
     42 H1'        -0.5175   -2.1046   -1.7826 H         1 ACP        -0.0393
     43 H8         -3.2310   -2.1319    1.1889 H         1 ACP         0.0000
     44 HN61       -6.3230    0.5316   -0.7829 H         1 ACP         0.2048
     45 HN62       -6.5628    1.5584   -2.1760 H         1 ACP         0.2048
     46 H2         -2.4822    1.2710   -4.4579 H         1 ACP        -0.1292
     47 H47        -4.7200    1.7780   -3.7346 H         1 ACP         0.2048
@<TRIPOS>BOND
     1    1    2 2
     2    1    3 1
     3    1    4 1
     4    1    8 1
     5    4   32 1
     6    5    6 2
     7    5    7 1
     8    5    8 1
     9    5   12 1
    10    8   33 1
    11    8   34 1
    12    9   10 2
    13    9   11 1
    14    9   12 1
    15    9   13 1
    16   13   14 1
    17   14   15 1
    18   14   35 1
    19   14   36 1
    20   15   16 1
    21   15   17 1
    22   15   37 1
    23   16   21 1
    24   17   18 1
    25   17   19 1
    26   17   38 1
    27   18   39 1
    28   19   20 1
    29   19   21 1
    30   19   40 1
    31   20   41 1
    32   21   22 1
    33   21   42 1
    34   22   23 ar
    35   22   31 ar
    36   23   24 ar
    37   23   43 1
    38   24   25 ar
    39   25   26 ar
    40   25   31 ar
    41   26   27 1
    42   26   28 ar
    43   27   44 1
    44   27   45 1
    45   28   29 ar
    46   28   47 1
    47   29   30 ar
    48   29   46 1
    49   30   31 ar
@<TRIPOS>SUBSTRUCTURE
     1 ACP         1 GROUP 0 A     ****
@<TRIPOS>MOLECULE
[[5-(6-amino-1,8-dihydropurine-6,8-diylium-7-id-9-yl)-3,4-dihydroxy-tetrahydrofuran-2-yl]methoxy-oxido-phosphoryl]oxy-[[hydroxy(oxido)phosphoryl]methyl]phosphinate
   47    49     1     0     0
SMALL
USER_CHARGES

@<TRIPOS>ATOM
      1 PG          4.3280    1.5837   -5.6043 P.3       1 ACP        -1.2804
      2 O1G         2.8306    1.3831   -5.6289 O.co2     1 ACP         0.3195
      3 O2G         5.0311    2.5061   -6.5734 O.co2     1 ACP         0.3195
      4 O3G         4.8028    1.9341   -4.0840 O.3       1 ACP         0.0326
      5 PB          4.8472   -1.4445   -4.5386 P.3       1 ACP        -1.2804
      6 O1B         5.3187   -0.9488   -3.1915 O.co2     1 ACP         0.3195
      7 O2B         5.3827   -2.7133   -5.1613 O.co2     1 ACP         0.3195
      8 C3B         5.1171   -0.0797   -5.7546 C.3       1 ACP         0.8942
      9 PA          2.1362   -2.2698   -3.6575 P.3       1 ACP        -1.1062
     10 O1A         2.4953   -3.7397   -3.6734 O.co2     1 ACP         0.3195
     11 O2A         0.7453   -1.8118   -4.0395 O.co2     1 ACP         0.3195
     12 O3A         3.2175   -1.4646   -4.5792 O.3       1 ACP         0.4672
     13 O5'         2.5237   -1.6631   -2.1889 O.3       1 ACP         0.1618
     14 C5'         2.2816   -0.2918   -1.9206 C.3       1 ACP         0.1504
     15 C4'         2.7248    0.0226   -0.4980 C.3       1 ACP         0.1111
     16 O4'         2.4697    1.4219   -0.2462 O.3       1 ACP        -0.1436
     17 C3'         1.9404   -0.7419    0.5596 C.3       1 ACP         0.1111
     18 O3'         2.7418   -0.8086    1.7389 O.3       1 ACP        -0.2728
     19 C2'         0.7477    0.1630    0.7858 C.3       1 ACP         0.1111
     20 O2'         0.1373   -0.0577    2.0407 O.3       1 ACP        -0.2728
     21 C1'         1.3733    1.5427    0.6747 C.3       1 ACP         0.2693
     22 N9          0.4520    2.5240    0.1767 N.pl3     1 ACP        -0.3222
     23 C8         -1.0660    2.5608    0.3999 C.ar      1 ACP         0.1640
     24 N7         -1.5852    3.6333   -0.2221 N.2       1 ACP        -0.1640
     25 C5         -0.4682    4.1996   -0.7771 C.ar      1 ACP         0.0820
     26 C6         -0.5216    5.4476   -1.5899 C.ar      1 ACP         0.1640
     27 N6         -1.6813    6.0510   -1.7982 N.pl3     1 ACP        -0.4916
     28 N1          0.6621    5.8575   -2.0523 N.pl3     1 ACP        -0.4390
     29 C2          1.8795    5.1301   -1.7717 C.ar      1 ACP         0.5691
     30 N3          1.9458    4.0434   -1.0670 N.ar      1 ACP        -0.4283
     31 C4          0.7388    3.6199   -0.5917 C.ar      1 ACP         0.2226
     32 HOG3        4.4350    2.7342   -3.6517 H         1 ACP         0.2010
     33 H3B1        6.1976    0.0991   -5.7865 H         1 ACP        -0.0393
     34 H3B2        4.8223   -0.4791   -6.7313 H         1 ACP        -0.0393
     35 H5'1        2.8429    0.3140   -2.6391 H         1 ACP        -0.0393
     36 H5'2        1.2125   -0.0906   -2.0420 H         1 ACP        -0.0393
     37 H4'         3.8046   -0.1390   -0.4011 H         1 ACP        -0.0393
     38 H3'         1.6787   -1.7627    0.2719 H         1 ACP        -0.0393
     39 HO3'        2.2231   -1.2979    2.3952 H         1 ACP         0.2010
     40 H2'         0.0002   -0.0084   -0.0014 H         1 ACP        -0.0393
     41 HO2'       -0.1554   -0.9852    2.0577 H         1 ACP         0.2010
     42 H1'         1.7718    1.9211    1.6015 H         1 ACP        -0.0393
     43 H8         -1.7235    1.8833    0.9537 H         1 ACP         0.0000
     44 HN61       -2.5296    5.6672   -1.4072 H         1 ACP         0.2048
     45 HN62       -1.7205    6.8969   -2.3483 H         1 ACP         0.2048
     46 H2          2.7750    5.5878   -2.2190 H         1 ACP        -0.1292
     47 H47         0.6808    6.7046   -2.6128 H         1 ACP         0.2048
@<TRIPOS>BOND
     1    1    2 2
     2    1    3 1
     3    1    4 1
     4    1    8 1
     5    4   32 1
     6    5    6 2
     7    5    7 1
     8    5    8 1
     9    5   12 1
    10    8   33 1
    11    8   34 1
    12    9   10 2
    13    9   11 1
    14    9   12 1
    15    9   13 1
    16   13   14 1
    17   14   15 1
    18   14   35 1
    19   14   36 1
    20   15   16 1
    21   15   17 1
    22   15   37 1
    23   16   21 1
    24   17   18 1
    25   17   19 1
    26   17   38 1
    27   18   39 1
    28   19   20 1
    29   19   21 1
    30   19   40 1
    31   20   41 1
    32   21   22 1
    33   21   42 1
    34   22   23 ar
    35   22   31 ar
    36   23   24 ar
    37   23   43 1
    38   24   25 ar
    39   25   26 ar
    40   25   31 ar
    41   26   27 1
    42   26   28 ar
    43   27   44 1
    44   27   45 1
    45   28   29 ar
    46   28   47 1
    47   29   30 ar
    48   29   46 1
    49   30   31 ar
@<TRIPOS>SUBSTRUCTURE
     1 ACP         1 GROUP 0 A     ****
@<TRIPOS>MOLECULE
[[5-(6-amino-1,8-dihydropurine-6,8-diylium-7-id-9-yl)-3,4-dihydroxy-tetrahydrofuran-2-yl]methoxy-oxido-phosphoryl]oxy-[[hydroxy(oxido)phosphoryl]methyl]phosphinate
   47    49     1     0     0
SMALL
USER_CHARGES

@<TRIPOS>ATOM
      1 PG          3.8223   -4.5880   -4.6489 P.3       1 ACP        -1.2804
      2 O1G         3.9653   -5.7610   -5.5904 O.co2     1 ACP         0.3195
      3 O2G         2.4743   -4.0105   -4.2835 O.co2     1 ACP         0.3195
      4 O3G         4.6720   -4.8791   -3.2876 O.3       1 ACP         0.0326
      5 PB          4.9905   -1.5569   -4.4967 P.3       1 ACP        -1.2804
      6 O1B         5.9144   -0.7099   -5.3403 O.co2     1 ACP         0.3195
      7 O2B         5.2443   -1.8053   -3.0276 O.co2     1 ACP         0.3195
      8 C3B         4.8515   -3.2069   -5.3165 C.3       1 ACP         0.8942
      9 PA          2.7389    0.3751   -4.4298 P.3       1 ACP        -1.1062
     10 O1A         1.2481    0.2227   -4.6393 O.co2     1 ACP         0.3195
     11 O2A         3.5164    1.4419   -5.1701 O.co2     1 ACP         0.3195
     12 O3A         3.4492   -1.0690   -4.7073 O.3       1 ACP         0.4672
     13 O5'         3.0198    0.5138   -2.8245 O.3       1 ACP         0.1618
     14 C5'         2.2816   -0.2918   -1.9206 C.3       1 ACP         0.1504
     15 C4'         2.7248    0.0226   -0.4980 C.3       1 ACP         0.1111
     16 O4'         2.4697    1.4219   -0.2462 O.3       1 ACP        -0.1436
     17 C3'         1.9404   -0.7419    0.5596 C.3       1 ACP         0.1111
     18 O3'         2.7418   -0.8086    1.7389 O.3       1 ACP        -0.2728
     19 C2'         0.7477    0.1630    0.7858 C.3       1 ACP         0.1111
     20 O2'         0.1373   -0.0577    2.0407 O.3       1 ACP        -0.2728
     21 C1'         1.3733    1.5427    0.6747 C.3       1 ACP         0.2693
     22 N9          0.4520    2.5240    0.1767 N.pl3     1 ACP        -0.3222
     23 C8         -1.0660    2.5608    0.3999 C.ar      1 ACP         0.1640
     24 N7         -1.5852    3.6333   -0.2221 N.2       1 ACP        -0.1640
     25 C5         -0.4682    4.1996   -0.7771 C.ar      1 ACP         0.0820
     26 C6         -0.5216    5.4476   -1.5899 C.ar      1 ACP         0.1640
     27 N6         -1.6813    6.0510   -1.7982 N.pl3     1 ACP        -0.4916
     28 N1          0.6621    5.8575   -2.0523 N.pl3     1 ACP        -0.4390
     29 C2          1.8795    5.1301   -1.7717 C.ar      1 ACP         0.5691
     30 N3          1.9458    4.0434   -1.0670 N.ar      1 ACP        -0.4283
     31 C4          0.7388    3.6199   -0.5917 C.ar      1 ACP         0.2226
     32 HOG3        4.4370   -5.6641   -2.7484 H         1 ACP         0.2010
     33 H3B1        4.4855   -3.0196   -6.3322 H         1 ACP        -0.0393
     34 H3B2        5.8738   -3.5915   -5.4026 H         1 ACP        -0.0393
     35 H5'1        1.2153   -0.0781   -2.0454 H         1 ACP        -0.0393
     36 H5'2        2.4645   -1.3454   -2.1547 H         1 ACP        -0.0393
     37 H4'         3.8046   -0.1390   -0.4011 H         1 ACP        -0.0393
     38 H3'         1.6787   -1.7627    0.2719 H         1 ACP        -0.0393
     39 HO3'        2.2231   -1.2979    2.3952 H         1 ACP         0.2010
     40 H2'         0.0002   -0.0084   -0.0014 H         1 ACP        -0.0393
     41 HO2'       -0.1554   -0.9852    2.0577 H         1 ACP         0.2010
     42 H1'         1.7718    1.9211    1.6015 H         1 ACP        -0.0393
     43 H8         -1.7235    1.8833    0.9537 H         1 ACP         0.0000
     44 HN61       -2.5296    5.6672   -1.4072 H         1 ACP         0.2048
     45 HN62       -1.7205    6.8969   -2.3483 H         1 ACP         0.2048
     46 H2          2.7750    5.5878   -2.2190 H         1 ACP        -0.1292
     47 H47         0.6808    6.7046   -2.6128 H         1 ACP         0.2048
@<TRIPOS>BOND
     1    1    2 2
     2    1    3 1
     3    1    4 1
     4    1    8 1
     5    4   32 1
     6    5    6 2
     7    5    7 1
     8    5    8 1
     9    5   12 1
    10    8   33 1
    11    8   34 1
    12    9   10 2
    13    9   11 1
    14    9   12 1
    15    9   13 1
    16   13   14 1
    17   14   15 1
    18   14   35 1
    19   14   36 1
    20   15   16 1
    21   15   17 1
    22   15   37 1
    23   16   21 1
    24   17   18 1
    25   17   19 1
    26   17   38 1
    27   18   39 1
    28   19   20 1
    29   19   21 1
    30   19   40 1
    31   20   41 1
    32   21   22 1
    33   21   42 1
    34   22   23 ar
    35   22   31 ar
    36   23   24 ar
    37   23   43 1
    38   24   25 ar
    39   25   26 ar
    40   25   31 ar
    41   26   27 1
    42   26   28 ar
    43   27   44 1
    44   27   45 1
    45   28   29 ar
    46   28   47 1
    47   29   30 ar
    48   29   46 1
    49   30   31 ar
@<TRIPOS>SUBSTRUCTURE
     1 ACP         1 GROUP 0 A     ****
@<TRIPOS>MOLECULE
[[5-(6-amino-1,8-dihydropurine-6,8-diylium-7-id-9-yl)-3,4-dihydroxy-tetrahydrofuran-2-yl]methoxy-oxido-phosphoryl]oxy-[[hydroxy(oxido)phosphoryl]methyl]phosphinate
   47    49     1     0     0
SMALL
USER_CHARGES

@<TRIPOS>ATOM
      1 PG         -0.5364    1.0738    5.2021 P.3       1 ACP        -1.2804
      2 O1G        -0.8469    2.4105    4.5700 O.co2     1 ACP         0.3195
      3 O2G         0.5178    0.1462    4.6433 O.co2     1 ACP         0.3195
      4 O3G        -0.2854    1.2758    6.8009 O.3       1 ACP         0.0326
      5 PB         -2.2313   -1.5836    6.0024 P.3       1 ACP        -1.2804
      6 O1B        -3.6753   -2.0167    5.9023 O.co2     1 ACP         0.3195
      7 O2B        -1.4823   -1.5784    7.3152 O.co2     1 ACP         0.3195
      8 C3B        -2.1157    0.1204    5.2975 C.3       1 ACP         0.8942
      9 PA         -0.7235   -3.8665    4.8526 P.3       1 ACP        -1.1062
     10 O1A        -1.8689   -4.8534    4.7912 O.co2     1 ACP         0.3195
     11 O2A         0.3249   -3.9688    5.9393 O.co2     1 ACP         0.3195
     12 O3A        -1.3445   -2.3562    4.8734 O.3       1 ACP         0.4672
     13 O5'         0.0099   -3.8403    3.3910 O.3       1 ACP         0.1618
     14 C5'        -0.7840   -3.8935    2.2172 C.3       1 ACP         0.1504
     15 C4'        -0.0724   -3.1466    1.1027 C.3       1 ACP         0.1111
     16 O4'        -0.8674   -3.1929   -0.0945 O.3       1 ACP        -0.1436
     17 C3'         0.1338   -1.6715    1.4027 C.3       1 ACP         0.1111
     18 O3'         1.2893   -1.4445    2.1808 O.3       1 ACP        -0.2728
     19 C2'         0.2158   -1.0724    0.0128 C.3       1 ACP         0.1111
     20 O2'         1.5141   -1.2448   -0.5513 O.3       1 ACP        -0.2728
     21 C1'        -0.7897   -1.9176   -0.7583 C.3       1 ACP         0.2693
     22 N9         -2.1040   -1.3333   -0.7704 N.pl3     1 ACP        -0.3222
     23 C8         -3.2124   -1.5345    0.2719 C.ar      1 ACP         0.1640
     24 N7         -4.2964   -0.8234   -0.0828 N.2       1 ACP        -0.1640
     25 C5         -3.8754   -0.2386   -1.2478 C.ar      1 ACP         0.0820
     26 C6         -4.7432    0.6719   -2.0470 C.ar      1 ACP         0.1640
     27 N6         -5.9725    0.9415   -1.6366 N.pl3     1 ACP        -0.4916
     28 N1         -4.1703    1.1517   -3.1536 N.pl3     1 ACP        -0.4390
     29 C2         -2.8174    0.7994   -3.5215 C.ar      1 ACP         0.5691
     30 N3         -2.0475    0.0097   -2.8393 N.ar      1 ACP        -0.4283
     31 C4         -2.6278   -0.4836   -1.7071 C.ar      1 ACP         0.2226
     32 HOG3        0.4437    1.8654    7.0891 H         1 ACP         0.2010
     33 H3B1       -2.4952    0.0589    4.2715 H         1 ACP        -0.0393
     34 H3B2       -2.8187    0.7354    5.8703 H         1 ACP        -0.0393
     35 H5'1       -0.9358   -4.9414    1.9395 H         1 ACP        -0.0393
     36 H5'2       -1.7558   -3.4349    2.4258 H         1 ACP        -0.0393
     37 H4'         0.8883   -3.6447    0.8783 H         1 ACP        -0.0393
     38 H3'        -0.7368   -1.2359    1.9871 H         1 ACP        -0.0393
     39 HO3'        1.3407   -0.4871    2.3218 H         1 ACP         0.2010
     40 H2'        -0.0343   -0.0280    0.0196 H         1 ACP        -0.0393
     41 HO2'        2.1443   -0.7955    0.0378 H         1 ACP         0.2010
     42 H1'        -0.5175   -2.1046   -1.7826 H         1 ACP        -0.0393
     43 H8         -3.2310   -2.1319    1.1889 H         1 ACP         0.0000
     44 HN61       -6.3230    0.5316   -0.7829 H         1 ACP         0.2048
     45 HN62       -6.5628    1.5584   -2.1760 H         1 ACP         0.2048
     46 H2         -2.4822    1.2710   -4.4579 H         1 ACP        -0.1292
     47 H47        -4.7200    1.7780   -3.7346 H         1 ACP         0.2048
@<TRIPOS>BOND
     1    1    2 2
     2    1    3 1
     3    1    4 1
     4    1    8 1
     5    4   32 1
     6    5    6 2
     7    5    7 1
     8    5    8 1
     9    5   12 1
    10    8   33 1
    11    8   34 1
    12    9   10 2
    13    9   11 1
    14    9   12 1
    15    9   13 1
    16   13   14 1
    17   14   15 1
    18   14   35 1
    19   14   36 1
    20   15   16 1
    21   15   17 1
    22   15   37 1
    23   16   21 1
    24   17   18 1
    25   17   19 1
    26   17   38 1
    27   18   39 1
    28   19   20 1
    29   19   21 1
    30   19   40 1
    31   20   41 1
    32   21   22 1
    33   21   42 1
    34   22   23 ar
    35   22   31 ar
    36   23   24 ar
    37   23   43 1
    38   24   25 ar
    39   25   26 ar
    40   25   31 ar
    41   26   27 1
    42   26   28 ar
    43   27   44 1
    44   27   45 1
    45   28   29 ar
    46   28   47 1
    47   29   30 ar
    48   29   46 1
    49   30   31 ar
@<TRIPOS>SUBSTRUCTURE
     1 ACP         1 GROUP 0 A     ****
@<TRIPOS>MOLECULE
[[5-(6-amino-1,8-dihydropurine-6,8-diylium-7-id-9-yl)-3,4-dihydroxy-tetrahydrofuran-2-yl]methoxy-oxido-phosphoryl]oxy-[[hydroxy(oxido)phosphoryl]methyl]phosphinate
   47    49     1     0     0
SMALL
USER_CHARGES

@<TRIPOS>ATOM
      1 PG         -0.7903   -0.9049   -7.1782 P.3       1 ACP        -1.2804
      2 O1G        -2.1220   -1.6180   -7.2080 O.co2     1 ACP         0.3195
      3 O2G         0.5208   -1.6455   -7.3072 O.co2     1 ACP         0.3195
      4 O3G        -0.8161    0.3358   -8.2365 O.3       1 ACP         0.0326
      5 PB          0.7311    1.1214   -5.1398 P.3       1 ACP        -1.2804
      6 O1B         0.4103    1.7589   -3.8082 O.co2     1 ACP         0.3195
      7 O2B         1.1129    1.9393   -6.3521 O.co2     1 ACP         0.3195
      8 C3B        -0.7174    0.0777   -5.6157 C.3       1 ACP         0.8942
      9 PA          3.3324   -0.0529   -4.3266 P.3       1 ACP        -1.1062
     10 O1A         4.1264    0.9964   -5.0738 O.co2     1 ACP         0.3195
     11 O2A         3.8347   -1.4774   -4.2320 O.co2     1 ACP         0.3195
     12 O3A         1.8151   -0.0782   -4.9299 O.3       1 ACP         0.4672
     13 O5'         3.0198    0.5138   -2.8245 O.3       1 ACP         0.1618
     14 C5'         2.2816   -0.2918   -1.9206 C.3       1 ACP         0.1504
     15 C4'         2.7248    0.0226   -0.4980 C.3       1 ACP         0.1111
     16 O4'         2.4697    1.4219   -0.2462 O.3       1 ACP        -0.1436
     17 C3'         1.9404   -0.7419    0.5596 C.3       1 ACP         0.1111
     18 O3'         2.7418   -0.8086    1.7389 O.3       1 ACP        -0.2728
     19 C2'         0.7477    0.1630    0.7858 C.3       1 ACP         0.1111
     20 O2'         0.1373   -0.0577    2.0407 O.3       1 ACP        -0.2728
     21 C1'         1.3733    1.5427    0.6747 C.3       1 ACP         0.2693
     22 N9          0.4520    2.5240    0.1767 N.pl3     1 ACP        -0.3222
     23 C8         -1.0660    2.5608    0.3999 C.ar      1 ACP         0.1640
     24 N7         -1.5852    3.6333   -0.2221 N.2       1 ACP        -0.1640
     25 C5         -0.4682    4.1996   -0.7771 C.ar      1 ACP         0.0820
     26 C6         -0.5216    5.4476   -1.5899 C.ar      1 ACP         0.1640
     27 N6         -1.6813    6.0510   -1.7982 N.pl3     1 ACP        -0.4916
     28 N1          0.6621    5.8575   -2.0523 N.pl3     1 ACP        -0.4390
     29 C2          1.8795    5.1301   -1.7717 C.ar      1 ACP         0.5691
     30 N3          1.9458    4.0434   -1.0670 N.ar      1 ACP        -0.4283
     31 C4          0.7388    3.6199   -0.5917 C.ar      1 ACP         0.2226
     32 HOG3       -0.9745    0.1388   -9.1843 H         1 ACP         0.2010
     33 H3B1       -0.8660   -0.6385   -4.7999 H         1 ACP        -0.0393
     34 H3B2       -1.5849    0.7469   -5.6258 H         1 ACP        -0.0393
     35 H5'1        1.2153   -0.0781   -2.0454 H         1 ACP        -0.0393
     36 H5'2        2.4645   -1.3454   -2.1547 H         1 ACP        -0.0393
     37 H4'         3.8046   -0.1390   -0.4011 H         1 ACP        -0.0393
     38 H3'         1.6787   -1.7627    0.2719 H         1 ACP        -0.0393
     39 HO3'        2.2231   -1.2979    2.3952 H         1 ACP         0.2010
     40 H2'         0.0002   -0.0084   -0.0014 H         1 ACP        -0.0393
     41 HO2'       -0.1554   -0.9852    2.0577 H         1 ACP         0.2010
     42 H1'         1.7718    1.9211    1.6015 H         1 ACP        -0.0393
     43 H8         -1.7235    1.8833    0.9537 H         1 ACP         0.0000
     44 HN61       -2.5296    5.6672   -1.4072 H         1 ACP         0.2048
     45 HN62       -1.7205    6.8969   -2.3483 H         1 ACP         0.2048
     46 H2          2.7750    5.5878   -2.2190 H         1 ACP        -0.1292
     47 H47         0.6808    6.7046   -2.6128 H         1 ACP         0.2048
@<TRIPOS>BOND
     1    1    2 2
     2    1    3 1
     3    1    4 1
     4    1    8 1
     5    4   32 1
     6    5    6 2
     7    5    7 1
     8    5    8 1
     9    5   12 1
    10    8   33 1
    11    8   34 1
    12    9   10 2
    13    9   11 1
    14    9   12 1
    15    9   13 1
    16   13   14 1
    17   14   15 1
    18   14   35 1
    19   14   36 1
    20   15   16 1
    21   15   17 1
    22   15   37 1
    23   16   21 1
    24   17   18 1
    25   17   19 1
    26   17   38 1
    27   18   39 1
    28   19   20 1
    29   19   21 1
    30   19   40 1
    31   20   41 1
    32   21   22 1
    33   21   42 1
    34   22   23 ar
    35   22   31 ar
    36   23   24 ar
    37   23   43 1
    38   24   25 ar
    39   25   26 ar
    40   25   31 ar
    41   26   27 1
    42   26   28 ar
    43   27   44 1
    44   27   45 1
    45   28   29 ar
    46   28   47 1
    47   29   30 ar
    48   29   46 1
    49   30   31 ar
@<TRIPOS>SUBSTRUCTURE
     1 ACP         1 GROUP 0 A     ****
@<TRIPOS>MOLECULE
[[5-(6-amino-1,8-dihydropurine-6,8-diylium-7-id-9-yl)-3,4-dihydroxy-tetrahydrofuran-2-yl]methoxy-oxido-phosphoryl]oxy-[[hydroxy(oxido)phosphoryl]methyl]phosphinate
   47    49     1     0     0
SMALL
USER_CHARGES

@<TRIPOS>ATOM
      1 PG         -4.4123   -1.2926    4.8351 P.3       1 ACP        -1.2804
      2 O1G        -5.6642   -0.8717    4.1013 O.co2     1 ACP         0.3195
      3 O2G        -3.0299   -0.9850    4.3074 O.co2     1 ACP         0.3195
      4 O3G        -4.5130   -0.8209    6.3930 O.3       1 ACP         0.0326
      5 PB         -3.1925   -4.0878    5.9637 P.3       1 ACP        -1.2804
      6 O1B        -3.6346   -5.5324    5.9809 O.co2     1 ACP         0.3195
      7 O2B        -2.8392   -3.3397    7.2285 O.co2     1 ACP         0.3195
      8 C3B        -4.5077   -3.1180    5.1013 C.3       1 ACP         0.8942
      9 PA         -0.5272   -4.5716    4.7518 P.3       1 ACP        -1.1062
     10 O1A        -0.7035   -6.0459    4.4601 O.co2     1 ACP         0.3195
     11 O2A         0.3040   -4.1129    5.9304 O.co2     1 ACP         0.3195
     12 O3A        -2.0057   -3.8874    4.8639 O.3       1 ACP         0.4672
     13 O5'         0.0099   -3.8403    3.3910 O.3       1 ACP         0.1618
     14 C5'        -0.7840   -3.8935    2.2172 C.3       1 ACP         0.1504
     15 C4'        -0.0724   -3.1466    1.1027 C.3       1 ACP         0.1111
     16 O4'        -0.8674   -3.1929   -0.0945 O.3       1 ACP        -0.1436
     17 C3'         0.1338   -1.6715    1.4027 C.3       1 ACP         0.1111
     18 O3'         1.2893   -1.4445    2.1808 O.3       1 ACP        -0.2728
     19 C2'         0.2158   -1.0724    0.0128 C.3       1 ACP         0.1111
     20 O2'         1.5141   -1.2448   -0.5513 O.3       1 ACP        -0.2728
     21 C1'        -0.7897   -1.9176   -0.7583 C.3       1 ACP         0.2693
     22 N9         -2.1040   -1.3333   -0.7704 N.pl3     1 ACP        -0.3222
     23 C8         -3.2124   -1.5345    0.2719 C.ar      1 ACP         0.1640
     24 N7         -4.2964   -0.8234   -0.0828 N.2       1 ACP        -0.1640
     25 C5         -3.8754   -0.2386   -1.2478 C.ar      1 ACP         0.0820
     26 C6         -4.7432    0.6719   -2.0470 C.ar      1 ACP         0.1640
     27 N6         -5.9725    0.9415   -1.6366 N.pl3     1 ACP        -0.4916
     28 N1         -4.1703    1.1517   -3.1536 N.pl3     1 ACP        -0.4390
     29 C2         -2.8174    0.7994   -3.5215 C.ar      1 ACP         0.5691
     30 N3         -2.0475    0.0097   -2.8393 N.ar      1 ACP        -0.4283
     31 C4         -2.6278   -0.4836   -1.7071 C.ar      1 ACP         0.2226
     32 HOG3       -4.6081    0.1359    6.5869 H         1 ACP         0.2010
     33 H3B1       -4.6213   -3.5639    4.1070 H         1 ACP        -0.0393
     34 H3B2       -5.4358   -3.3060    5.6525 H         1 ACP        -0.0393
     35 H5'1       -0.9358   -4.9414    1.9395 H         1 ACP        -0.0393
     36 H5'2       -1.7558   -3.4349    2.4258 H         1 ACP        -0.0393
     37 H4'         0.8883   -3.6447    0.8783 H         1 ACP        -0.0393
     38 H3'        -0.7368   -1.2359    1.9871 H         1 ACP        -0.0393
     39 HO3'        1.1625   -1.9325    3.0084 H         1 ACP         0.2010
     40 H2'        -0.0343   -0.0280    0.0196 H         1 ACP        -0.0393
     41 HO2'        2.1443   -0.7955    0.0378 H         1 ACP         0.2010
     42 H1'        -0.5175   -2.1046   -1.7826 H         1 ACP        -0.0393
     43 H8         -3.2310   -2.1319    1.1889 H         1 ACP         0.0000
     44 HN61       -6.3230    0.5316   -0.7829 H         1 ACP         0.2048
     45 HN62       -6.5628    1.5584   -2.1760 H         1 ACP         0.2048
     46 H2         -2.4822    1.2710   -4.4579 H         1 ACP        -0.1292
     47 H47        -4.7200    1.7780   -3.7346 H         1 ACP         0.2048
@<TRIPOS>BOND
     1    1    2 2
     2    1    3 1
     3    1    4 1
     4    1    8 1
     5    4   32 1
     6    5    6 2
     7    5    7 1
     8    5    8 1
     9    5   12 1
    10    8   33 1
    11    8   34 1
    12    9   10 2
    13    9   11 1
    14    9   12 1
    15    9   13 1
    16   13   14 1
    17   14   15 1
    18   14   35 1
    19   14   36 1
    20   15   16 1
    21   15   17 1
    22   15   37 1
    23   16   21 1
    24   17   18 1
    25   17   19 1
    26   17   38 1
    27   18   39 1
    28   19   20 1
    29   19   21 1
    30   19   40 1
    31   20   41 1
    32   21   22 1
    33   21   42 1
    34   22   23 ar
    35   22   31 ar
    36   23   24 ar
    37   23   43 1
    38   24   25 ar
    39   25   26 ar
    40   25   31 ar
    41   26   27 1
    42   26   28 ar
    43   27   44 1
    44   27   45 1
    45   28   29 ar
    46   28   47 1
    47   29   30 ar
    48   29   46 1
    49   30   31 ar
@<TRIPOS>SUBSTRUCTURE
     1 ACP         1 GROUP 0 A     ****
@<TRIPOS>MOLECULE
[[5-(6-amino-1,8-dihydropurine-6,8-diylium-7-id-9-yl)-3,4-dihydroxy-tetrahydrofuran-2-yl]methoxy-oxido-phosphoryl]oxy-[[hydroxy(oxido)phosphoryl]methyl]phosphinate
   47    49     1     0     0
SMALL
USER_CHARGES

@<TRIPOS>ATOM
      1 PG         -2.7805   -1.0031   -3.3844 P.3       1 ACP        -1.2804
      2 O1G        -4.1041   -1.1040   -4.1060 O.co2     1 ACP         0.3195
      3 O2G        -1.6749   -0.0880   -3.8580 O.co2     1 ACP         0.3195
      4 O3G        -3.0476   -0.7500   -1.7955 O.3       1 ACP         0.0326
      5 PB         -0.4560   -3.0822   -2.4629 P.3       1 ACP        -1.2804
      6 O1B        -0.2322   -4.5724   -2.5718 O.co2     1 ACP         0.3195
      7 O2B        -0.4376   -2.3610   -1.1347 O.co2     1 ACP         0.3195
      8 C3B        -2.0755   -2.7066   -3.2693 C.3       1 ACP         0.8942
      9 PA          2.1362   -2.2698   -3.6575 P.3       1 ACP        -1.1062
     10 O1A         2.5073   -1.2450   -4.7072 O.co2     1 ACP         0.3195
     11 O2A         2.6360   -3.6946   -3.7605 O.co2     1 ACP         0.3195
     12 O3A         0.5093   -2.3009   -3.5192 O.3       1 ACP         0.4672
     13 O5'         2.5237   -1.6631   -2.1889 O.3       1 ACP         0.1618
     14 C5'         2.2816   -0.2918   -1.9206 C.3       1 ACP         0.1504
     15 C4'         2.7248    0.0226   -0.4980 C.3       1 ACP         0.1111
     16 O4'         2.4697    1.4219   -0.2462 O.3       1 ACP        -0.1436
     17 C3'         1.9404   -0.7419    0.5596 C.3       1 ACP         0.1111
     18 O3'         2.7418   -0.8086    1.7389 O.3       1 ACP        -0.2728
     19 C2'         0.7477    0.1630    0.7858 C.3       1 ACP         0.1111
     20 O2'         0.1373   -0.0577    2.0407 O.3       1 ACP        -0.2728
     21 C1'         1.3733    1.5427    0.6747 C.3       1 ACP         0.2693
     22 N9          0.4520    2.5240    0.1767 N.pl3     1 ACP        -0.3222
     23 C8         -1.0660    2.5608    0.3999 C.ar      1 ACP         0.1640
     24 N7         -1.5852    3.6333   -0.2221 N.2       1 ACP        -0.1640
     25 C5         -0.4682    4.1996   -0.7771 C.ar      1 ACP         0.0820
     26 C6         -0.5216    5.4476   -1.5899 C.ar      1 ACP         0.1640
     27 N6         -1.6813    6.0510   -1.7982 N.pl3     1 ACP        -0.4916
     28 N1          0.6621    5.8575   -2.0523 N.pl3     1 ACP        -0.4390
     29 C2          1.8795    5.1301   -1.7717 C.ar      1 ACP         0.5691
     30 N3          1.9458    4.0434   -1.0670 N.ar      1 ACP        -0.4283
     31 C4          0.7388    3.6199   -0.5917 C.ar      1 ACP         0.2226
     32 HOG3       -3.5423    0.0532   -1.5265 H         1 ACP         0.2010
     33 H3B1       -2.0031   -3.0750   -4.2986 H         1 ACP        -0.0393
     34 H3B2       -2.8223   -3.3204   -2.7536 H         1 ACP        -0.0393
     35 H5'1        2.8429    0.3140   -2.6391 H         1 ACP        -0.0393
     36 H5'2        1.2125   -0.0906   -2.0420 H         1 ACP        -0.0393
     37 H4'         3.8046   -0.1390   -0.4011 H         1 ACP        -0.0393
     38 H3'         1.6787   -1.7627    0.2719 H         1 ACP        -0.0393
     39 HO3'        2.2231   -1.2979    2.3952 H         1 ACP         0.2010
     40 H2'         0.0002   -0.0084   -0.0014 H         1 ACP        -0.0393
     41 HO2'       -0.1554   -0.9852    2.0577 H         1 ACP         0.2010
     42 H1'         1.7718    1.9211    1.6015 H         1 ACP        -0.0393
     43 H8         -1.7235    1.8833    0.9537 H         1 ACP         0.0000
     44 HN61       -2.5296    5.6672   -1.4072 H         1 ACP         0.2048
     45 HN62       -1.7205    6.8969   -2.3483 H         1 ACP         0.2048
     46 H2          2.7750    5.5878   -2.2190 H         1 ACP        -0.1292
     47 H47         0.6808    6.7046   -2.6128 H         1 ACP         0.2048
@<TRIPOS>BOND
     1    1    2 2
     2    1    3 1
     3    1    4 1
     4    1    8 1
     5    4   32 1
     6    5    6 2
     7    5    7 1
     8    5    8 1
     9    5   12 1
    10    8   33 1
    11    8   34 1
    12    9   10 2
    13    9   11 1
    14    9   12 1
    15    9   13 1
    16   13   14 1
    17   14   15 1
    18   14   35 1
    19   14   36 1
    20   15   16 1
    21   15   17 1
    22   15   37 1
    23   16   21 1
    24   17   18 1
    25   17   19 1
    26   17   38 1
    27   18   39 1
    28   19   20 1
    29   19   21 1
    30   19   40 1
    31   20   41 1
    32   21   22 1
    33   21   42 1
    34   22   23 ar
    35   22   31 ar
    36   23   24 ar
    37   23   43 1
    38   24   25 ar
    39   25   26 ar
    40   25   31 ar
    41   26   27 1
    42   26   28 ar
    43   27   44 1
    44   27   45 1
    45   28   29 ar
    46   28   47 1
    47   29   30 ar
    48   29   46 1
    49   30   31 ar
@<TRIPOS>SUBSTRUCTURE
     1 ACP         1 GROUP 0 A     ****
@<TRIPOS>MOLECULE
[[5-(6-amino-1,8-dihydropurine-6,8-diylium-7-id-9-yl)-3,4-dihydroxy-tetrahydrofuran-2-yl]methoxy-oxido-phosphoryl]oxy-[[hydroxy(oxido)phosphoryl]methyl]phosphinate
   47    49     1     0     0
SMALL
USER_CHARGES

@<TRIPOS>ATOM
      1 PG         -0.8152   -1.4648   -6.0809 P.3       1 ACP        -1.2804
      2 O1G        -1.8141   -1.4813   -7.2144 O.co2     1 ACP         0.3195
      3 O2G        -0.9758   -0.5593   -4.8815 O.co2     1 ACP         0.3195
      4 O3G        -0.5467   -2.9911   -5.5731 O.3       1 ACP         0.0326
      5 PB          2.3931   -1.0143   -5.7988 P.3       1 ACP        -1.2804
      6 O1B         3.5333   -0.7300   -6.7484 O.co2     1 ACP         0.3195
      7 O2B         2.4043   -2.1990   -4.8603 O.co2     1 ACP         0.3195
      8 C3B         0.8493   -1.1277   -6.8077 C.3       1 ACP         0.8942
      9 PA          2.9215    1.2532   -3.9587 P.3       1 ACP        -1.1062
     10 O1A         2.0230    2.2933   -3.3258 O.co2     1 ACP         0.3195
     11 O2A         4.1836    1.6642   -4.6857 O.co2     1 ACP         0.3195
     12 O3A         2.0199    0.3363   -4.9653 O.3       1 ACP         0.4672
     13 O5'         3.2883    0.1336   -2.8242 O.3       1 ACP         0.1618
     14 C5'         2.2816   -0.2918   -1.9206 C.3       1 ACP         0.1504
     15 C4'         2.7248    0.0226   -0.4980 C.3       1 ACP         0.1111
     16 O4'         2.4697    1.4219   -0.2462 O.3       1 ACP        -0.1436
     17 C3'         1.9404   -0.7419    0.5596 C.3       1 ACP         0.1111
     18 O3'         2.7418   -0.8086    1.7389 O.3       1 ACP        -0.2728
     19 C2'         0.7477    0.1630    0.7858 C.3       1 ACP         0.1111
     20 O2'         0.1373   -0.0577    2.0407 O.3       1 ACP        -0.2728
     21 C1'         1.3733    1.5427    0.6747 C.3       1 ACP         0.2693
     22 N9          0.4520    2.5240    0.1767 N.pl3     1 ACP        -0.3222
     23 C8         -0.3054    2.4845   -1.1576 C.ar      1 ACP         0.1640
     24 N7         -1.0755    3.5806   -1.2691 N.2       1 ACP        -0.1640
     25 C5         -0.8043    4.2306   -0.0942 C.ar      1 ACP         0.0820
     26 C6         -1.4324    5.5335    0.2646 C.ar      1 ACP         0.1640
     27 N6         -2.2885    6.1055   -0.5675 N.pl3     1 ACP        -0.4916
     28 N1         -1.0537    6.0229    1.4478 N.pl3     1 ACP        -0.4390
     29 C2         -0.1096    5.3242    2.2908 C.ar      1 ACP         0.5691
     30 N3          0.4468    4.1904    1.9960 N.ar      1 ACP        -0.4283
     31 C4          0.0631    3.6855    0.7877 C.ar      1 ACP         0.2226
     32 HOG3       -1.3053   -3.5109   -5.2318 H         1 ACP         0.2010
     33 H3B1        0.7586   -0.1773   -7.3453 H         1 ACP        -0.0393
     34 H3B2        1.0295   -1.9098   -7.5536 H         1 ACP        -0.0393
     35 H5'1        1.3500    0.2325   -2.1560 H         1 ACP        -0.0393
     36 H5'2        2.1267   -1.3683   -2.0444 H         1 ACP        -0.0393
     37 H4'         3.8046   -0.1390   -0.4011 H         1 ACP        -0.0393
     38 H3'         1.6787   -1.7627    0.2719 H         1 ACP        -0.0393
     39 HO3'        3.5553   -1.2733    1.4913 H         1 ACP         0.2010
     40 H2'         0.0002   -0.0084   -0.0014 H         1 ACP        -0.0393
     41 HO2'       -0.6132    0.5577    2.1063 H         1 ACP         0.2010
     42 H1'         1.7718    1.9211    1.6015 H         1 ACP        -0.0393
     43 H8         -0.2991    1.7413   -1.9611 H         1 ACP         0.0000
     44 HN61       -2.5167    5.6603   -1.4447 H         1 ACP         0.2048
     45 HN62       -2.7159    6.9882   -0.3270 H         1 ACP         0.2048
     46 H2          0.1059    5.8491    3.2340 H         1 ACP        -0.1292
     47 H47        -1.4532    6.9099    1.7401 H         1 ACP         0.2048
@<TRIPOS>BOND
     1    1    2 2
     2    1    3 1
     3    1    4 1
     4    1    8 1
     5    4   32 1
     6    5    6 2
     7    5    7 1
     8    5    8 1
     9    5   12 1
    10    8   33 1
    11    8   34 1
    12    9   10 2
    13    9   11 1
    14    9   12 1
    15    9   13 1
    16   13   14 1
    17   14   15 1
    18   14   35 1
    19   14   36 1
    20   15   16 1
    21   15   17 1
    22   15   37 1
    23   16   21 1
    24   17   18 1
    25   17   19 1
    26   17   38 1
    27   18   39 1
    28   19   20 1
    29   19   21 1
    30   19   40 1
    31   20   41 1
    32   21   22 1
    33   21   42 1
    34   22   23 ar
    35   22   31 ar
    36   23   24 ar
    37   23   43 1
    38   24   25 ar
    39   25   26 ar
    40   25   31 ar
    41   26   27 1
    42   26   28 ar
    43   27   44 1
    44   27   45 1
    45   28   29 ar
    46   28   47 1
    47   29   30 ar
    48   29   46 1
    49   30   31 ar
@<TRIPOS>SUBSTRUCTURE
     1 ACP         1 GROUP 0 A     ****
@<TRIPOS>MOLECULE
[[5-(6-amino-1,8-dihydropurine-6,8-diylium-7-id-9-yl)-3,4-dihydroxy-tetrahydrofuran-2-yl]methoxy-oxido-phosphoryl]oxy-[[hydroxy(oxido)phosphoryl]methyl]phosphinate
   47    49     1     0     0
SMALL
USER_CHARGES

@<TRIPOS>ATOM
      1 PG         -1.3216   -0.4318   -4.7967 P.3       1 ACP        -1.2804
      2 O1G        -1.5881    0.3597   -3.5375 O.co2     1 ACP         0.3195
      3 O2G        -0.7401   -1.8263   -4.7612 O.co2     1 ACP         0.3195
      4 O3G        -2.6574   -0.4273   -5.7324 O.3       1 ACP         0.0326
      5 PB          1.4479    1.1717   -5.3743 P.3       1 ACP        -1.2804
      6 O1B         1.2787    2.0218   -4.1368 O.co2     1 ACP         0.3195
      7 O2B         2.1387    1.6871   -6.6159 O.co2     1 ACP         0.3195
      8 C3B        -0.2321    0.5930   -5.8807 C.3       1 ACP         0.8942
      9 PA          3.4821   -0.6660   -4.2377 P.3       1 ACP        -1.1062
     10 O1A         4.6119   -0.0112   -5.0023 O.co2     1 ACP         0.3195
     11 O2A         3.4912   -2.1564   -3.9749 O.co2     1 ACP         0.3195
     12 O3A         2.0730   -0.2777   -4.9662 O.3       1 ACP         0.4672
     13 O5'         3.2883    0.1336   -2.8242 O.3       1 ACP         0.1618
     14 C5'         2.2816   -0.2918   -1.9206 C.3       1 ACP         0.1504
     15 C4'         2.7248    0.0226   -0.4980 C.3       1 ACP         0.1111
     16 O4'         2.4697    1.4219   -0.2462 O.3       1 ACP        -0.1436
     17 C3'         1.9404   -0.7419    0.5596 C.3       1 ACP         0.1111
     18 O3'         2.7418   -0.8086    1.7389 O.3       1 ACP        -0.2728
     19 C2'         0.7477    0.1630    0.7858 C.3       1 ACP         0.1111
     20 O2'         0.1373   -0.0577    2.0407 O.3       1 ACP        -0.2728
     21 C1'         1.3733    1.5427    0.6747 C.3       1 ACP         0.2693
     22 N9          0.4520    2.5240    0.1767 N.pl3     1 ACP        -0.3222
     23 C8         -1.0660    2.5608    0.3999 C.ar      1 ACP         0.1640
     24 N7         -1.5852    3.6333   -0.2221 N.2       1 ACP        -0.1640
     25 C5         -0.4682    4.1996   -0.7771 C.ar      1 ACP         0.0820
     26 C6         -0.5216    5.4476   -1.5899 C.ar      1 ACP         0.1640
     27 N6         -1.6813    6.0510   -1.7982 N.pl3     1 ACP        -0.4916
     28 N1          0.6621    5.8575   -2.0523 N.pl3     1 ACP        -0.4390
     29 C2          1.8795    5.1301   -1.7717 C.ar      1 ACP         0.5691
     30 N3          1.9458    4.0434   -1.0670 N.ar      1 ACP        -0.4283
     31 C4          0.7388    3.6199   -0.5917 C.ar      1 ACP         0.2226
     32 HOG3       -3.4852   -0.8067   -5.3677 H         1 ACP         0.2010
     33 H3B1       -0.8089    1.4911   -6.1281 H         1 ACP        -0.0393
     34 H3B2       -0.0927    0.0275   -6.8087 H         1 ACP        -0.0393
     35 H5'1        1.3500    0.2325   -2.1560 H         1 ACP        -0.0393
     36 H5'2        2.1267   -1.3683   -2.0444 H         1 ACP        -0.0393
     37 H4'         3.8046   -0.1390   -0.4011 H         1 ACP        -0.0393
     38 H3'         1.6787   -1.7627    0.2719 H         1 ACP        -0.0393
     39 HO3'        3.5553   -1.2733    1.4913 H         1 ACP         0.2010
     40 H2'         0.0002   -0.0084   -0.0014 H         1 ACP        -0.0393
     41 HO2'        0.8091    0.1203    2.7213 H         1 ACP         0.2010
     42 H1'         1.7718    1.9211    1.6015 H         1 ACP        -0.0393
     43 H8         -1.7235    1.8833    0.9537 H         1 ACP         0.0000
     44 HN61       -2.5296    5.6672   -1.4072 H         1 ACP         0.2048
     45 HN62       -1.7205    6.8969   -2.3483 H         1 ACP         0.2048
     46 H2          2.7750    5.5878   -2.2190 H         1 ACP        -0.1292
     47 H47         0.6808    6.7046   -2.6128 H         1 ACP         0.2048
@<TRIPOS>BOND
     1    1    2 2
     2    1    3 1
     3    1    4 1
     4    1    8 1
     5    4   32 1
     6    5    6 2
     7    5    7 1
     8    5    8 1
     9    5   12 1
    10    8   33 1
    11    8   34 1
    12    9   10 2
    13    9   11 1
    14    9   12 1
    15    9   13 1
    16   13   14 1
    17   14   15 1
    18   14   35 1
    19   14   36 1
    20   15   16 1
    21   15   17 1
    22   15   37 1
    23   16   21 1
    24   17   18 1
    25   17   19 1
    26   17   38 1
    27   18   39 1
    28   19   20 1
    29   19   21 1
    30   19   40 1
    31   20   41 1
    32   21   22 1
    33   21   42 1
    34   22   23 ar
    35   22   31 ar
    36   23   24 ar
    37   23   43 1
    38   24   25 ar
    39   25   26 ar
    40   25   31 ar
    41   26   27 1
    42   26   28 ar
    43   27   44 1
    44   27   45 1
    45   28   29 ar
    46   28   47 1
    47   29   30 ar
    48   29   46 1
    49   30   31 ar
@<TRIPOS>SUBSTRUCTURE
     1 ACP         1 GROUP 0 A     ****
@<TRIPOS>MOLECULE
[[5-(6-amino-1,8-dihydropurine-6,8-diylium-7-id-9-yl)-3,4-dihydroxy-tetrahydrofuran-2-yl]methoxy-oxido-phosphoryl]oxy-[[hydroxy(oxido)phosphoryl]methyl]phosphinate
   47    49     1     0     0
SMALL
USER_CHARGES

@<TRIPOS>ATOM
      1 PG          4.1176    0.2624   -6.9355 P.3       1 ACP        -1.2804
      2 O1G         4.8890   -0.8595   -7.5905 O.co2     1 ACP         0.3195
      3 O2G         4.4067    0.7193   -5.5242 O.co2     1 ACP         0.3195
      4 O3G         4.0954    1.5563   -7.9281 O.3       1 ACP         0.0326
      5 PB          1.6089   -1.6890   -6.2476 P.3       1 ACP        -1.2804
      6 O1B         2.2902   -2.8799   -6.8803 O.co2     1 ACP         0.3195
      7 O2B         0.1061   -1.5283   -6.2477 O.co2     1 ACP         0.3195
      8 C3B         2.3236   -0.1697   -7.0190 C.3       1 ACP         0.8942
      9 PA          2.1619   -2.4482   -3.4326 P.3       1 ACP        -1.1062
     10 O1A         3.0558   -3.6357   -3.7164 O.co2     1 ACP         0.3195
     11 O2A         0.7246   -2.6502   -3.0040 O.co2     1 ACP         0.3195
     12 O3A         2.1796   -1.4656   -4.7369 O.3       1 ACP         0.4672
     13 O5'         2.9202   -1.4821   -2.3524 O.3       1 ACP         0.1618
     14 C5'         2.2816   -0.2918   -1.9206 C.3       1 ACP         0.1504
     15 C4'         2.7248    0.0226   -0.4980 C.3       1 ACP         0.1111
     16 O4'         2.4697    1.4219   -0.2462 O.3       1 ACP        -0.1436
     17 C3'         1.9404   -0.7419    0.5596 C.3       1 ACP         0.1111
     18 O3'         2.7418   -0.8086    1.7389 O.3       1 ACP        -0.2728
     19 C2'         0.7477    0.1630    0.7858 C.3       1 ACP         0.1111
     20 O2'         0.1373   -0.0577    2.0407 O.3       1 ACP        -0.2728
     21 C1'         1.3733    1.5427    0.6747 C.3       1 ACP         0.2693
     22 N9          0.4520    2.5240    0.1767 N.pl3     1 ACP        -0.3222
     23 C8         -0.3054    2.4845   -1.1576 C.ar      1 ACP         0.1640
     24 N7         -1.0755    3.5806   -1.2691 N.2       1 ACP        -0.1640
     25 C5         -0.8043    4.2306   -0.0942 C.ar      1 ACP         0.0820
     26 C6         -1.4324    5.5335    0.2646 C.ar      1 ACP         0.1640
     27 N6         -2.2885    6.1055   -0.5675 N.pl3     1 ACP        -0.4916
     28 N1         -1.0537    6.0229    1.4478 N.pl3     1 ACP        -0.4390
     29 C2         -0.1096    5.3242    2.2908 C.ar      1 ACP         0.5691
     30 N3          0.4468    4.1904    1.9960 N.ar      1 ACP        -0.4283
     31 C4          0.0631    3.6855    0.7877 C.ar      1 ACP         0.2226
     32 HOG3        4.9504    1.9591   -8.1907 H         1 ACP         0.2010
     33 H3B1        2.0716   -0.2140   -8.0844 H         1 ACP        -0.0393
     34 H3B2        1.7772    0.6766   -6.5881 H         1 ACP        -0.0393
     35 H5'1        2.5581    0.5235   -2.5966 H         1 ACP        -0.0393
     36 H5'2        1.1974   -0.4370   -1.9607 H         1 ACP        -0.0393
     37 H4'         3.8046   -0.1390   -0.4011 H         1 ACP        -0.0393
     38 H3'         1.6787   -1.7627    0.2719 H         1 ACP        -0.0393
     39 HO3'        2.2231   -1.2979    2.3952 H         1 ACP         0.2010
     40 H2'         0.0002   -0.0084   -0.0014 H         1 ACP        -0.0393
     41 HO2'       -0.6132    0.5577    2.1063 H         1 ACP         0.2010
     42 H1'         1.7718    1.9211    1.6015 H         1 ACP        -0.0393
     43 H8         -0.2991    1.7413   -1.9611 H         1 ACP         0.0000
     44 HN61       -2.5167    5.6603   -1.4447 H         1 ACP         0.2048
     45 HN62       -2.7159    6.9882   -0.3270 H         1 ACP         0.2048
     46 H2          0.1059    5.8491    3.2340 H         1 ACP        -0.1292
     47 H47        -1.4532    6.9099    1.7401 H         1 ACP         0.2048
@<TRIPOS>BOND
     1    1    2 2
     2    1    3 1
     3    1    4 1
     4    1    8 1
     5    4   32 1
     6    5    6 2
     7    5    7 1
     8    5    8 1
     9    5   12 1
    10    8   33 1
    11    8   34 1
    12    9   10 2
    13    9   11 1
    14    9   12 1
    15    9   13 1
    16   13   14 1
    17   14   15 1
    18   14   35 1
    19   14   36 1
    20   15   16 1
    21   15   17 1
    22   15   37 1
    23   16   21 1
    24   17   18 1
    25   17   19 1
    26   17   38 1
    27   18   39 1
    28   19   20 1
    29   19   21 1
    30   19   40 1
    31   20   41 1
    32   21   22 1
    33   21   42 1
    34   22   23 ar
    35   22   31 ar
    36   23   24 ar
    37   23   43 1
    38   24   25 ar
    39   25   26 ar
    40   25   31 ar
    41   26   27 1
    42   26   28 ar
    43   27   44 1
    44   27   45 1
    45   28   29 ar
    46   28   47 1
    47   29   30 ar
    48   29   46 1
    49   30   31 ar
@<TRIPOS>SUBSTRUCTURE
     1 ACP         1 GROUP 0 A     ****
@<TRIPOS>MOLECULE
[[5-(6-amino-1,8-dihydropurine-6,8-diylium-7-id-9-yl)-3,4-dihydroxy-tetrahydrofuran-2-yl]methoxy-oxido-phosphoryl]oxy-[[hydroxy(oxido)phosphoryl]methyl]phosphinate
   47    49     1     0     0
SMALL
USER_CHARGES

@<TRIPOS>ATOM
      1 PG          0.1002    2.2420   -6.1216 P.3       1 ACP        -1.2804
      2 O1G         0.6921    2.4436   -4.7462 O.co2     1 ACP         0.3195
      3 O2G        -1.2308    2.8378   -6.5188 O.co2     1 ACP         0.3195
      4 O3G         1.2164    2.6125   -7.2515 O.3       1 ACP         0.0326
      5 PB          1.4818   -0.6857   -6.4298 P.3       1 ACP        -1.2804
      6 O1B         2.4135   -0.1933   -7.5126 O.co2     1 ACP         0.3195
      7 O2B         0.9758   -2.1093   -6.3902 O.co2     1 ACP         0.3195
      8 C3B         0.0035    0.4228   -6.4272 C.3       1 ACP         0.8942
      9 PA          3.4821   -0.6660   -4.2377 P.3       1 ACP        -1.1062
     10 O1A         4.6119   -0.0112   -5.0023 O.co2     1 ACP         0.3195
     11 O2A         3.4912   -2.1564   -3.9749 O.co2     1 ACP         0.3195
     12 O3A         2.0730   -0.2777   -4.9662 O.3       1 ACP         0.4672
     13 O5'         3.2883    0.1336   -2.8242 O.3       1 ACP         0.1618
     14 C5'         2.2816   -0.2918   -1.9206 C.3       1 ACP         0.1504
     15 C4'         2.7248    0.0226   -0.4980 C.3       1 ACP         0.1111
     16 O4'         2.4697    1.4219   -0.2462 O.3       1 ACP        -0.1436
     17 C3'         1.9404   -0.7419    0.5596 C.3       1 ACP         0.1111
     18 O3'         2.7418   -0.8086    1.7389 O.3       1 ACP        -0.2728
     19 C2'         0.7477    0.1630    0.7858 C.3       1 ACP         0.1111
     20 O2'         0.1373   -0.0577    2.0407 O.3       1 ACP        -0.2728
     21 C1'         1.3733    1.5427    0.6747 C.3       1 ACP         0.2693
     22 N9          0.4520    2.5240    0.1767 N.pl3     1 ACP        -0.3222
     23 C8         -1.0660    2.5608    0.3999 C.ar      1 ACP         0.1640
     24 N7         -1.5852    3.6333   -0.2221 N.2       1 ACP        -0.1640
     25 C5         -0.4682    4.1996   -0.7771 C.ar      1 ACP         0.0820
     26 C6         -0.5216    5.4476   -1.5899 C.ar      1 ACP         0.1640
     27 N6         -1.6813    6.0510   -1.7982 N.pl3     1 ACP        -0.4916
     28 N1          0.6621    5.8575   -2.0523 N.pl3     1 ACP        -0.4390
     29 C2          1.8795    5.1301   -1.7717 C.ar      1 ACP         0.5691
     30 N3          1.9458    4.0434   -1.0670 N.ar      1 ACP        -0.4283
     31 C4          0.7388    3.6199   -0.5917 C.ar      1 ACP         0.2226
     32 HOG3        1.5826    3.5224   -7.2665 H         1 ACP         0.2010
     33 H3B1       -0.4753    0.3047   -7.4056 H         1 ACP        -0.0393
     34 H3B2       -0.6818    0.0150   -5.6759 H         1 ACP        -0.0393
     35 H5'1        1.3500    0.2325   -2.1560 H         1 ACP        -0.0393
     36 H5'2        2.1267   -1.3683   -2.0444 H         1 ACP        -0.0393
     37 H4'         3.8046   -0.1390   -0.4011 H         1 ACP        -0.0393
     38 H3'         1.6787   -1.7627    0.2719 H         1 ACP        -0.0393
     39 HO3'        2.2231   -1.2979    2.3952 H         1 ACP         0.2010
     40 H2'         0.0002   -0.0084   -0.0014 H         1 ACP        -0.0393
     41 HO2'       -0.1554   -0.9852    2.0577 H         1 ACP         0.2010
     42 H1'         1.7718    1.9211    1.6015 H         1 ACP        -0.0393
     43 H8         -1.7235    1.8833    0.9537 H         1 ACP         0.0000
     44 HN61       -2.5296    5.6672   -1.4072 H         1 ACP         0.2048
     45 HN62       -1.7205    6.8969   -2.3483 H         1 ACP         0.2048
     46 H2          2.7750    5.5878   -2.2190 H         1 ACP        -0.1292
     47 H47         0.6808    6.7046   -2.6128 H         1 ACP         0.2048
@<TRIPOS>BOND
     1    1    2 2
     2    1    3 1
     3    1    4 1
     4    1    8 1
     5    4   32 1
     6    5    6 2
     7    5    7 1
     8    5    8 1
     9    5   12 1
    10    8   33 1
    11    8   34 1
    12    9   10 2
    13    9   11 1
    14    9   12 1
    15    9   13 1
    16   13   14 1
    17   14   15 1
    18   14   35 1
    19   14   36 1
    20   15   16 1
    21   15   17 1
    22   15   37 1
    23   16   21 1
    24   17   18 1
    25   17   19 1
    26   17   38 1
    27   18   39 1
    28   19   20 1
    29   19   21 1
    30   19   40 1
    31   20   41 1
    32   21   22 1
    33   21   42 1
    34   22   23 ar
    35   22   31 ar
    36   23   24 ar
    37   23   43 1
    38   24   25 ar
    39   25   26 ar
    40   25   31 ar
    41   26   27 1
    42   26   28 ar
    43   27   44 1
    44   27   45 1
    45   28   29 ar
    46   28   47 1
    47   29   30 ar
    48   29   46 1
    49   30   31 ar
@<TRIPOS>SUBSTRUCTURE
     1 ACP         1 GROUP 0 A     ****
@<TRIPOS>MOLECULE
[[5-(6-amino-1,8-dihydropurine-6,8-diylium-7-id-9-yl)-3,4-dihydroxy-tetrahydrofuran-2-yl]methoxy-oxido-phosphoryl]oxy-[[hydroxy(oxido)phosphoryl]methyl]phosphinate
   47    49     1     0     0
SMALL
USER_CHARGES

@<TRIPOS>ATOM
      1 PG         -1.5658   -8.4351    2.0245 P.3       1 ACP        -1.2804
      2 O1G        -2.6228   -7.5413    2.6300 O.co2     1 ACP         0.3195
      3 O2G        -1.8664   -9.8482    1.5807 O.co2     1 ACP         0.3195
      4 O3G        -0.8096   -7.6396    0.8182 O.3       1 ACP         0.0326
      5 PB          0.7995   -7.0350    3.7625 P.3       1 ACP        -1.2804
      6 O1B         1.4128   -6.4127    2.5298 O.co2     1 ACP         0.3195
      7 O2B         1.6326   -7.4513    4.9528 O.co2     1 ACP         0.3195
      8 C3B        -0.1558   -8.5188    3.2150 C.3       1 ACP         0.8942
      9 PA         -0.5272   -4.5716    4.7518 P.3       1 ACP        -1.1062
     10 O1A         0.5026   -4.3627    5.8407 O.co2     1 ACP         0.3195
     11 O2A        -1.9772   -4.2040    4.9812 O.co2     1 ACP         0.3195
     12 O3A        -0.4587   -6.1302    4.2691 O.3       1 ACP         0.4672
     13 O5'         0.0099   -3.8403    3.3910 O.3       1 ACP         0.1618
     14 C5'        -0.7840   -3.8935    2.2172 C.3       1 ACP         0.1504
     15 C4'        -0.0724   -3.1466    1.1027 C.3       1 ACP         0.1111
     16 O4'        -0.8674   -3.1929   -0.0945 O.3       1 ACP        -0.1436
     17 C3'         0.1338   -1.6715    1.4027 C.3       1 ACP         0.1111
     18 O3'         1.2893   -1.4445    2.1808 O.3       1 ACP        -0.2728
     19 C2'         0.2158   -1.0724    0.0128 C.3       1 ACP         0.1111
     20 O2'         1.5141   -1.2448   -0.5513 O.3       1 ACP        -0.2728
     21 C1'        -0.7897   -1.9176   -0.7583 C.3       1 ACP         0.2693
     22 N9         -2.1040   -1.3333   -0.7704 N.pl3     1 ACP        -0.3222
     23 C8         -3.2124   -1.5345    0.2719 C.ar      1 ACP         0.1640
     24 N7         -4.2964   -0.8234   -0.0828 N.2       1 ACP        -0.1640
     25 C5         -3.8754   -0.2386   -1.2478 C.ar      1 ACP         0.0820
     26 C6         -4.7432    0.6719   -2.0470 C.ar      1 ACP         0.1640
     27 N6         -5.9725    0.9415   -1.6366 N.pl3     1 ACP        -0.4916
     28 N1         -4.1703    1.1517   -3.1536 N.pl3     1 ACP        -0.4390
     29 C2         -2.8174    0.7994   -3.5215 C.ar      1 ACP         0.5691
     30 N3         -2.0475    0.0097   -2.8393 N.ar      1 ACP        -0.4283
     31 C4         -2.6278   -0.4836   -1.7071 C.ar      1 ACP         0.2226
     32 HOG3       -1.3433   -7.3295    0.0558 H         1 ACP         0.2010
     33 H3B1        0.5706   -9.2118    2.7763 H         1 ACP        -0.0393
     34 H3B2       -0.5436   -8.9852    4.1274 H         1 ACP        -0.0393
     35 H5'1       -0.9358   -4.9414    1.9395 H         1 ACP        -0.0393
     36 H5'2       -1.7558   -3.4349    2.4258 H         1 ACP        -0.0393
     37 H4'         0.8883   -3.6447    0.8783 H         1 ACP        -0.0393
     38 H3'        -0.7368   -1.2359    1.9871 H         1 ACP        -0.0393
     39 HO3'        1.1625   -1.9325    3.0084 H         1 ACP         0.2010
     40 H2'        -0.0343   -0.0280    0.0196 H         1 ACP        -0.0393
     41 HO2'        2.1443   -0.7955    0.0378 H         1 ACP         0.2010
     42 H1'        -0.5175   -2.1046   -1.7826 H         1 ACP        -0.0393
     43 H8         -3.2310   -2.1319    1.1889 H         1 ACP         0.0000
     44 HN61       -6.3230    0.5316   -0.7829 H         1 ACP         0.2048
     45 HN62       -6.5628    1.5584   -2.1760 H         1 ACP         0.2048
     46 H2         -2.4822    1.2710   -4.4579 H         1 ACP        -0.1292
     47 H47        -4.7200    1.7780   -3.7346 H         1 ACP         0.2048
@<TRIPOS>BOND
     1    1    2 2
     2    1    3 1
     3    1    4 1
     4    1    8 1
     5    4   32 1
     6    5    6 2
     7    5    7 1
     8    5    8 1
     9    5   12 1
    10    8   33 1
    11    8   34 1
    12    9   10 2
    13    9   11 1
    14    9   12 1
    15    9   13 1
    16   13   14 1
    17   14   15 1
    18   14   35 1
    19   14   36 1
    20   15   16 1
    21   15   17 1
    22   15   37 1
    23   16   21 1
    24   17   18 1
    25   17   19 1
    26   17   38 1
    27   18   39 1
    28   19   20 1
    29   19   21 1
    30   19   40 1
    31   20   41 1
    32   21   22 1
    33   21   42 1
    34   22   23 ar
    35   22   31 ar
    36   23   24 ar
    37   23   43 1
    38   24   25 ar
    39   25   26 ar
    40   25   31 ar
    41   26   27 1
    42   26   28 ar
    43   27   44 1
    44   27   45 1
    45   28   29 ar
    46   28   47 1
    47   29   30 ar
    48   29   46 1
    49   30   31 ar
@<TRIPOS>SUBSTRUCTURE
     1 ACP         1 GROUP 0 A     ****
@<TRIPOS>MOLECULE
[[5-(6-amino-1,8-dihydropurine-6,8-diylium-7-id-9-yl)-3,4-dihydroxy-tetrahydrofuran-2-yl]methoxy-oxido-phosphoryl]oxy-[[hydroxy(oxido)phosphoryl]methyl]phosphinate
   47    49     1     0     0
SMALL
USER_CHARGES

@<TRIPOS>ATOM
      1 PG         -0.4359   -2.6127   -4.8367 P.3       1 ACP        -1.2804
      2 O1G        -1.1794   -1.5956   -4.0028 O.co2     1 ACP         0.3195
      3 O2G         0.5041   -3.6237   -4.2214 O.co2     1 ACP         0.3195
      4 O3G        -1.4871   -3.3807   -5.8190 O.3       1 ACP         0.0326
      5 PB          1.8062   -0.4336   -5.7309 P.3       1 ACP        -1.2804
      6 O1B         1.1410    0.6617   -4.9306 O.co2     1 ACP         0.3195
      7 O2B         2.5630   -0.1502   -7.0081 O.co2     1 ACP         0.3195
      8 C3B         0.5123   -1.6918   -6.1270 C.3       1 ACP         0.8942
      9 PA          3.9989   -0.9668   -3.8036 P.3       1 ACP        -1.1062
     10 O1A         5.0247   -0.2515   -4.6555 O.co2     1 ACP         0.3195
     11 O2A         4.3843   -2.1858   -2.9937 O.co2     1 ACP         0.3195
     12 O3A         2.7242   -1.3549   -4.7479 O.3       1 ACP         0.4672
     13 O5'         3.2883    0.1336   -2.8242 O.3       1 ACP         0.1618
     14 C5'         2.2816   -0.2918   -1.9206 C.3       1 ACP         0.1504
     15 C4'         2.7248    0.0226   -0.4980 C.3       1 ACP         0.1111
     16 O4'         2.4697    1.4219   -0.2462 O.3       1 ACP        -0.1436
     17 C3'         1.9404   -0.7419    0.5596 C.3       1 ACP         0.1111
     18 O3'         2.7418   -0.8086    1.7389 O.3       1 ACP        -0.2728
     19 C2'         0.7477    0.1630    0.7858 C.3       1 ACP         0.1111
     20 O2'         0.1373   -0.0577    2.0407 O.3       1 ACP        -0.2728
     21 C1'         1.3733    1.5427    0.6747 C.3       1 ACP         0.2693
     22 N9          0.4520    2.5240    0.1767 N.pl3     1 ACP        -0.3222
     23 C8          0.5793    3.3338   -1.1209 C.ar      1 ACP         0.1640
     24 N7         -0.4807    4.1508   -1.2458 N.2       1 ACP        -0.1640
     25 C5         -1.1921    3.8572   -0.1126 C.ar      1 ACP         0.0820
     26 C6         -2.4855    4.5203    0.2163 C.ar      1 ACP         0.1640
     27 N6         -2.9873    5.4319   -0.6020 N.pl3     1 ACP        -0.4916
     28 N1         -3.0414    4.1119    1.3596 N.pl3     1 ACP        -0.4390
     29 C2         -2.4169    3.1071    2.1904 C.ar      1 ACP         0.5691
     30 N3         -1.2928    2.5191    1.9210 N.ar      1 ACP        -0.4283
     31 C4         -0.7202    2.9326    0.7534 C.ar      1 ACP         0.2226
     32 HOG3       -2.2267   -3.8811   -5.4130 H         1 ACP         0.2010
     33 H3B1       -0.2345   -1.1848   -6.7481 H         1 ACP        -0.0393
     34 H3B2        1.0020   -2.4455   -6.7535 H         1 ACP        -0.0393
     35 H5'1        1.3500    0.2325   -2.1560 H         1 ACP        -0.0393
     36 H5'2        2.1267   -1.3683   -2.0444 H         1 ACP        -0.0393
     37 H4'         3.8046   -0.1390   -0.4011 H         1 ACP        -0.0393
     38 H3'         1.6787   -1.7627    0.2719 H         1 ACP        -0.0393
     39 HO3'        3.5553   -1.2733    1.4913 H         1 ACP         0.2010
     40 H2'         0.0002   -0.0084   -0.0014 H         1 ACP        -0.0393
     41 HO2'        0.8091    0.1203    2.7213 H         1 ACP         0.2010
     42 H1'         1.7718    1.9211    1.6015 H         1 ACP        -0.0393
     43 H8          1.3565    3.3309   -1.8916 H         1 ACP         0.0000
     44 HN61       -2.4952    5.6785   -1.4487 H         1 ACP         0.2048
     45 HN62       -3.8637    5.8828   -0.3819 H         1 ACP         0.2048
     46 H2         -2.9911    2.8734    3.1000 H         1 ACP        -0.1292
     47 H47        -3.9253    4.5332    1.6302 H         1 ACP         0.2048
@<TRIPOS>BOND
     1    1    2 2
     2    1    3 1
     3    1    4 1
     4    1    8 1
     5    4   32 1
     6    5    6 2
     7    5    7 1
     8    5    8 1
     9    5   12 1
    10    8   33 1
    11    8   34 1
    12    9   10 2
    13    9   11 1
    14    9   12 1
    15    9   13 1
    16   13   14 1
    17   14   15 1
    18   14   35 1
    19   14   36 1
    20   15   16 1
    21   15   17 1
    22   15   37 1
    23   16   21 1
    24   17   18 1
    25   17   19 1
    26   17   38 1
    27   18   39 1
    28   19   20 1
    29   19   21 1
    30   19   40 1
    31   20   41 1
    32   21   22 1
    33   21   42 1
    34   22   23 ar
    35   22   31 ar
    36   23   24 ar
    37   23   43 1
    38   24   25 ar
    39   25   26 ar
    40   25   31 ar
    41   26   27 1
    42   26   28 ar
    43   27   44 1
    44   27   45 1
    45   28   29 ar
    46   28   47 1
    47   29   30 ar
    48   29   46 1
    49   30   31 ar
@<TRIPOS>SUBSTRUCTURE
     1 ACP         1 GROUP 0 A     ****
@<TRIPOS>MOLECULE
[[5-(6-amino-1,8-dihydropurine-6,8-diylium-7-id-9-yl)-3,4-dihydroxy-tetrahydrofuran-2-yl]methoxy-oxido-phosphoryl]oxy-[[hydroxy(oxido)phosphoryl]methyl]phosphinate
   47    49     1     0     0
SMALL
USER_CHARGES

@<TRIPOS>ATOM
      1 PG          5.9547   -3.5623   -4.5288 P.3       1 ACP        -1.2804
      2 O1G         6.1565   -4.9799   -4.0467 O.co2     1 ACP         0.3195
      3 O2G         6.0675   -2.3744   -3.6012 O.co2     1 ACP         0.3195
      4 O3G         6.8734   -3.3038   -5.8513 O.3       1 ACP         0.0326
      5 PB          3.6071   -1.9329   -6.0810 P.3       1 ACP        -1.2804
      6 O1B         2.2415   -2.2678   -6.6338 O.co2     1 ACP         0.3195
      7 O2B         4.6943   -1.3247   -6.9368 O.co2     1 ACP         0.3195
      8 C3B         4.2949   -3.4771   -5.3350 C.3       1 ACP         0.8942
      9 PA          2.7389    0.3751   -4.4298 P.3       1 ACP        -1.1062
     10 O1A         1.2481    0.2227   -4.6393 O.co2     1 ACP         0.3195
     11 O2A         3.5164    1.4419   -5.1701 O.co2     1 ACP         0.3195
     12 O3A         3.4492   -1.0690   -4.7073 O.3       1 ACP         0.4672
     13 O5'         3.0198    0.5138   -2.8245 O.3       1 ACP         0.1618
     14 C5'         2.2816   -0.2918   -1.9206 C.3       1 ACP         0.1504
     15 C4'         2.7248    0.0226   -0.4980 C.3       1 ACP         0.1111
     16 O4'         2.4697    1.4219   -0.2462 O.3       1 ACP        -0.1436
     17 C3'         1.9404   -0.7419    0.5596 C.3       1 ACP         0.1111
     18 O3'         2.7418   -0.8086    1.7389 O.3       1 ACP        -0.2728
     19 C2'         0.7477    0.1630    0.7858 C.3       1 ACP         0.1111
     20 O2'         0.1373   -0.0577    2.0407 O.3       1 ACP        -0.2728
     21 C1'         1.3733    1.5427    0.6747 C.3       1 ACP         0.2693
     22 N9          0.4520    2.5240    0.1767 N.pl3     1 ACP        -0.3222
     23 C8         -0.8593    2.9753    0.8343 C.ar      1 ACP         0.1640
     24 N7         -1.4458    3.9121    0.0693 N.2       1 ACP        -0.1640
     25 C5         -0.5581    4.0180   -0.9686 C.ar      1 ACP         0.0820
     26 C6         -0.7663    4.9543   -2.1092 C.ar      1 ACP         0.1640
     27 N6         -1.8429    5.7238   -2.1440 N.pl3     1 ACP        -0.4916
     28 N1          0.1993    4.9263   -3.0311 N.pl3     1 ACP        -0.4390
     29 C2          1.3416    4.0491   -2.9069 C.ar      1 ACP         0.5691
     30 N3          1.5401    3.2284   -1.9225 N.ar      1 ACP        -0.4283
     31 C4          0.5563    3.2529   -0.9772 C.ar      1 ACP         0.2226
     32 HOG3        7.8458   -3.4064   -5.7728 H         1 ACP         0.2010
     33 H3B1        3.5732   -3.8052   -4.5787 H         1 ACP        -0.0393
     34 H3B2        4.2959   -4.2271   -6.1338 H         1 ACP        -0.0393
     35 H5'1        1.2153   -0.0781   -2.0454 H         1 ACP        -0.0393
     36 H5'2        2.4645   -1.3454   -2.1547 H         1 ACP        -0.0393
     37 H4'         3.8046   -0.1390   -0.4011 H         1 ACP        -0.0393
     38 H3'         1.6787   -1.7627    0.2719 H         1 ACP        -0.0393
     39 HO3'        2.2231   -1.2979    2.3952 H         1 ACP         0.2010
     40 H2'         0.0002   -0.0084   -0.0014 H         1 ACP        -0.0393
     41 HO2'       -0.1554   -0.9852    2.0577 H         1 ACP         0.2010
     42 H1'         1.7718    1.9211    1.6015 H         1 ACP        -0.0393
     43 H8         -1.3368    2.6590    1.7670 H         1 ACP         0.0000
     44 HN61       -2.5230    5.6776   -1.3990 H         1 ACP         0.2048
     45 HN62       -1.9865    6.3594   -2.9154 H         1 ACP         0.2048
     46 H2          2.0529    4.1368   -3.7423 H         1 ACP        -0.1292
     47 H47         0.1054    5.5465   -3.8301 H         1 ACP         0.2048
@<TRIPOS>BOND
     1    1    2 2
     2    1    3 1
     3    1    4 1
     4    1    8 1
     5    4   32 1
     6    5    6 2
     7    5    7 1
     8    5    8 1
     9    5   12 1
    10    8   33 1
    11    8   34 1
    12    9   10 2
    13    9   11 1
    14    9   12 1
    15    9   13 1
    16   13   14 1
    17   14   15 1
    18   14   35 1
    19   14   36 1
    20   15   16 1
    21   15   17 1
    22   15   37 1
    23   16   21 1
    24   17   18 1
    25   17   19 1
    26   17   38 1
    27   18   39 1
    28   19   20 1
    29   19   21 1
    30   19   40 1
    31   20   41 1
    32   21   22 1
    33   21   42 1
    34   22   23 ar
    35   22   31 ar
    36   23   24 ar
    37   23   43 1
    38   24   25 ar
    39   25   26 ar
    40   25   31 ar
    41   26   27 1
    42   26   28 ar
    43   27   44 1
    44   27   45 1
    45   28   29 ar
    46   28   47 1
    47   29   30 ar
    48   29   46 1
    49   30   31 ar
@<TRIPOS>SUBSTRUCTURE
     1 ACP         1 GROUP 0 A     ****
@<TRIPOS>MOLECULE
[[5-(6-amino-1,8-dihydropurine-6,8-diylium-7-id-9-yl)-3,4-dihydroxy-tetrahydrofuran-2-yl]methoxy-oxido-phosphoryl]oxy-[[hydroxy(oxido)phosphoryl]methyl]phosphinate
   47    49     1     0     0
SMALL
USER_CHARGES

@<TRIPOS>ATOM
      1 PG          5.1701   -4.0155   -2.2378 P.3       1 ACP        -1.2804
      2 O1G         4.2065   -4.9900   -2.8740 O.co2     1 ACP         0.3195
      3 O2G         4.7094   -2.9353   -1.2865 O.co2     1 ACP         0.3195
      4 O3G         6.4061   -4.8382   -1.5631 O.3       1 ACP         0.0326
      5 PB          5.3023   -2.1900   -4.9258 P.3       1 ACP        -1.2804
      6 O1B         4.3452   -3.1009   -5.6584 O.co2     1 ACP         0.3195
      7 O2B         6.3947   -1.4286   -5.6409 O.co2     1 ACP         0.3195
      8 C3B         6.1089   -3.1897   -3.5975 C.3       1 ACP         0.8942
      9 PA          3.3324   -0.0529   -4.3266 P.3       1 ACP        -1.1062
     10 O1A         2.0985   -0.7700   -4.8296 O.co2     1 ACP         0.3195
     11 O2A         3.9793    1.0390   -5.1511 O.co2     1 ACP         0.3195
     12 O3A         4.4675   -1.1702   -3.9660 O.3       1 ACP         0.4672
     13 O5'         3.0198    0.5138   -2.8245 O.3       1 ACP         0.1618
     14 C5'         2.2816   -0.2918   -1.9206 C.3       1 ACP         0.1504
     15 C4'         2.7248    0.0226   -0.4980 C.3       1 ACP         0.1111
     16 O4'         2.4697    1.4219   -0.2462 O.3       1 ACP        -0.1436
     17 C3'         1.9404   -0.7419    0.5596 C.3       1 ACP         0.1111
     18 O3'         2.7418   -0.8086    1.7389 O.3       1 ACP        -0.2728
     19 C2'         0.7477    0.1630    0.7858 C.3       1 ACP         0.1111
     20 O2'         0.1373   -0.0577    2.0407 O.3       1 ACP        -0.2728
     21 C1'         1.3733    1.5427    0.6747 C.3       1 ACP         0.2693
     22 N9          0.4520    2.5240    0.1767 N.pl3     1 ACP        -0.3222
     23 C8         -1.0660    2.5608    0.3999 C.ar      1 ACP         0.1640
     24 N7         -1.5852    3.6333   -0.2221 N.2       1 ACP        -0.1640
     25 C5         -0.4682    4.1996   -0.7771 C.ar      1 ACP         0.0820
     26 C6         -0.5216    5.4476   -1.5899 C.ar      1 ACP         0.1640
     27 N6         -1.6813    6.0510   -1.7982 N.pl3     1 ACP        -0.4916
     28 N1          0.6621    5.8575   -2.0523 N.pl3     1 ACP        -0.4390
     29 C2          1.8795    5.1301   -1.7717 C.ar      1 ACP         0.5691
     30 N3          1.9458    4.0434   -1.0670 N.ar      1 ACP        -0.4283
     31 C4          0.7388    3.6199   -0.5917 C.ar      1 ACP         0.2226
     32 HOG3        6.2048   -5.4893   -0.8575 H         1 ACP         0.2010
     33 H3B1        6.6709   -3.9828   -4.1032 H         1 ACP        -0.0393
     34 H3B2        6.8376   -2.5271   -3.1174 H         1 ACP        -0.0393
     35 H5'1        1.2153   -0.0781   -2.0454 H         1 ACP        -0.0393
     36 H5'2        2.4645   -1.3454   -2.1547 H         1 ACP        -0.0393
     37 H4'         3.8046   -0.1390   -0.4011 H         1 ACP        -0.0393
     38 H3'         1.6787   -1.7627    0.2719 H         1 ACP        -0.0393
     39 HO3'        2.2231   -1.2979    2.3952 H         1 ACP         0.2010
     40 H2'         0.0002   -0.0084   -0.0014 H         1 ACP        -0.0393
     41 HO2'       -0.1554   -0.9852    2.0577 H         1 ACP         0.2010
     42 H1'         1.7718    1.9211    1.6015 H         1 ACP        -0.0393
     43 H8         -1.7235    1.8833    0.9537 H         1 ACP         0.0000
     44 HN61       -2.5296    5.6672   -1.4072 H         1 ACP         0.2048
     45 HN62       -1.7205    6.8969   -2.3483 H         1 ACP         0.2048
     46 H2          2.7750    5.5878   -2.2190 H         1 ACP        -0.1292
     47 H47         0.6808    6.7046   -2.6128 H         1 ACP         0.2048
@<TRIPOS>BOND
     1    1    2 2
     2    1    3 1
     3    1    4 1
     4    1    8 1
     5    4   32 1
     6    5    6 2
     7    5    7 1
     8    5    8 1
     9    5   12 1
    10    8   33 1
    11    8   34 1
    12    9   10 2
    13    9   11 1
    14    9   12 1
    15    9   13 1
    16   13   14 1
    17   14   15 1
    18   14   35 1
    19   14   36 1
    20   15   16 1
    21   15   17 1
    22   15   37 1
    23   16   21 1
    24   17   18 1
    25   17   19 1
    26   17   38 1
    27   18   39 1
    28   19   20 1
    29   19   21 1
    30   19   40 1
    31   20   41 1
    32   21   22 1
    33   21   42 1
    34   22   23 ar
    35   22   31 ar
    36   23   24 ar
    37   23   43 1
    38   24   25 ar
    39   25   26 ar
    40   25   31 ar
    41   26   27 1
    42   26   28 ar
    43   27   44 1
    44   27   45 1
    45   28   29 ar
    46   28   47 1
    47   29   30 ar
    48   29   46 1
    49   30   31 ar
@<TRIPOS>SUBSTRUCTURE
     1 ACP         1 GROUP 0 A     ****
@<TRIPOS>MOLECULE
[[5-(6-amino-1,8-dihydropurine-6,8-diylium-7-id-9-yl)-3,4-dihydroxy-tetrahydrofuran-2-yl]methoxy-oxido-phosphoryl]oxy-[[hydroxy(oxido)phosphoryl]methyl]phosphinate
   47    49     1     0     0
SMALL
USER_CHARGES

@<TRIPOS>ATOM
      1 PG          5.9779    2.8004   -2.1586 P.3       1 ACP        -1.2804
      2 O1G         6.6824    3.5535   -1.0543 O.co2     1 ACP         0.3195
      3 O2G         4.5246    2.3981   -2.0565 O.co2     1 ACP         0.3195
      4 O3G         6.2292    3.5611   -3.5791 O.3       1 ACP         0.0326
      5 PB          6.4731    0.0255   -3.7804 P.3       1 ACP        -1.2804
      6 O1B         7.5112   -1.0719   -3.7550 O.co2     1 ACP         0.3195
      7 O2B         6.1384    0.7872   -5.0422 O.co2     1 ACP         0.3195
      8 C3B         6.9518    1.2682   -2.4995 C.3       1 ACP         0.8942
      9 PA          3.8922   -1.4350   -3.6669 P.3       1 ACP        -1.1062
     10 O1A         4.4379   -2.8263   -3.9036 O.co2     1 ACP         0.3195
     11 O2A         3.1971   -0.6799   -4.7792 O.co2     1 ACP         0.3195
     12 O3A         5.0972   -0.5008   -3.0818 O.3       1 ACP         0.4672
     13 O5'         2.9202   -1.4821   -2.3524 O.3       1 ACP         0.1618
     14 C5'         2.2816   -0.2918   -1.9206 C.3       1 ACP         0.1504
     15 C4'         2.7248    0.0226   -0.4980 C.3       1 ACP         0.1111
     16 O4'         2.4697    1.4219   -0.2462 O.3       1 ACP        -0.1436
     17 C3'         1.9404   -0.7419    0.5596 C.3       1 ACP         0.1111
     18 O3'         2.7418   -0.8086    1.7389 O.3       1 ACP        -0.2728
     19 C2'         0.7477    0.1630    0.7858 C.3       1 ACP         0.1111
     20 O2'         0.1373   -0.0577    2.0407 O.3       1 ACP        -0.2728
     21 C1'         1.3733    1.5427    0.6747 C.3       1 ACP         0.2693
     22 N9          0.4520    2.5240    0.1767 N.pl3     1 ACP        -0.3222
     23 C8         -0.3054    2.4845   -1.1576 C.ar      1 ACP         0.1640
     24 N7         -1.0755    3.5806   -1.2691 N.2       1 ACP        -0.1640
     25 C5         -0.8043    4.2306   -0.0942 C.ar      1 ACP         0.0820
     26 C6         -1.4324    5.5335    0.2646 C.ar      1 ACP         0.1640
     27 N6         -2.2885    6.1055   -0.5675 N.pl3     1 ACP        -0.4916
     28 N1         -1.0537    6.0229    1.4478 N.pl3     1 ACP        -0.4390
     29 C2         -0.1096    5.3242    2.2908 C.ar      1 ACP         0.5691
     30 N3          0.4468    4.1904    1.9960 N.ar      1 ACP        -0.4283
     31 C4          0.0631    3.6855    0.7877 C.ar      1 ACP         0.2226
     32 HOG3        5.9242    4.4886   -3.6734 H         1 ACP         0.2010
     33 H3B1        7.0097    0.7277   -1.5482 H         1 ACP        -0.0393
     34 H3B2        7.9669    1.5926   -2.7541 H         1 ACP        -0.0393
     35 H5'1        2.5581    0.5235   -2.5966 H         1 ACP        -0.0393
     36 H5'2        1.1974   -0.4370   -1.9607 H         1 ACP        -0.0393
     37 H4'         3.8046   -0.1390   -0.4011 H         1 ACP        -0.0393
     38 H3'         1.6787   -1.7627    0.2719 H         1 ACP        -0.0393
     39 HO3'        2.2231   -1.2979    2.3952 H         1 ACP         0.2010
     40 H2'         0.0002   -0.0084   -0.0014 H         1 ACP        -0.0393
     41 HO2'       -0.1554   -0.9852    2.0577 H         1 ACP         0.2010
     42 H1'         1.7718    1.9211    1.6015 H         1 ACP        -0.0393
     43 H8         -0.2991    1.7413   -1.9611 H         1 ACP         0.0000
     44 HN61       -2.5167    5.6603   -1.4447 H         1 ACP         0.2048
     45 HN62       -2.7159    6.9882   -0.3270 H         1 ACP         0.2048
     46 H2          0.1059    5.8491    3.2340 H         1 ACP        -0.1292
     47 H47        -1.4532    6.9099    1.7401 H         1 ACP         0.2048
@<TRIPOS>BOND
     1    1    2 2
     2    1    3 1
     3    1    4 1
     4    1    8 1
     5    4   32 1
     6    5    6 2
     7    5    7 1
     8    5    8 1
     9    5   12 1
    10    8   33 1
    11    8   34 1
    12    9   10 2
    13    9   11 1
    14    9   12 1
    15    9   13 1
    16   13   14 1
    17   14   15 1
    18   14   35 1
    19   14   36 1
    20   15   16 1
    21   15   17 1
    22   15   37 1
    23   16   21 1
    24   17   18 1
    25   17   19 1
    26   17   38 1
    27   18   39 1
    28   19   20 1
    29   19   21 1
    30   19   40 1
    31   20   41 1
    32   21   22 1
    33   21   42 1
    34   22   23 ar
    35   22   31 ar
    36   23   24 ar
    37   23   43 1
    38   24   25 ar
    39   25   26 ar
    40   25   31 ar
    41   26   27 1
    42   26   28 ar
    43   27   44 1
    44   27   45 1
    45   28   29 ar
    46   28   47 1
    47   29   30 ar
    48   29   46 1
    49   30   31 ar
@<TRIPOS>SUBSTRUCTURE
     1 ACP         1 GROUP 0 A     ****
@<TRIPOS>MOLECULE
[[5-(6-amino-1,8-dihydropurine-6,8-diylium-7-id-9-yl)-3,4-dihydroxy-tetrahydrofuran-2-yl]methoxy-oxido-phosphoryl]oxy-[[hydroxy(oxido)phosphoryl]methyl]phosphinate
   47    49     1     0     0
SMALL
USER_CHARGES

@<TRIPOS>ATOM
      1 PG          4.7499   -3.6308   -6.8300 P.3       1 ACP        -1.2804
      2 O1G         4.6029   -5.0989   -7.1556 O.co2     1 ACP         0.3195
      3 O2G         5.8475   -3.1137   -5.9288 O.co2     1 ACP         0.3195
      4 O3G         4.7331   -2.7650   -8.2120 O.3       1 ACP         0.0326
      5 PB          2.8430   -1.3106   -5.5828 P.3       1 ACP        -1.2804
      6 O1B         1.4215   -1.2348   -5.0765 O.co2     1 ACP         0.3195
      7 O2B         3.3576   -0.4011   -6.6746 O.co2     1 ACP         0.3195
      8 C3B         3.1420   -3.0498   -6.1306 C.3       1 ACP         0.8942
      9 PA          4.4357   -0.0473   -3.4208 P.3       1 ACP        -1.1062
     10 O1A         5.0077    1.0009   -4.3502 O.co2     1 ACP         0.3195
     11 O2A         5.2684   -0.6124   -2.2904 O.co2     1 ACP         0.3195
     12 O3A         3.8786   -1.2888   -4.3238 O.3       1 ACP         0.4672
     13 O5'         3.0198    0.5138   -2.8245 O.3       1 ACP         0.1618
     14 C5'         2.2816   -0.2918   -1.9206 C.3       1 ACP         0.1504
     15 C4'         2.7248    0.0226   -0.4980 C.3       1 ACP         0.1111
     16 O4'         2.4697    1.4219   -0.2462 O.3       1 ACP        -0.1436
     17 C3'         1.9404   -0.7419    0.5596 C.3       1 ACP         0.1111
     18 O3'         2.7418   -0.8086    1.7389 O.3       1 ACP        -0.2728
     19 C2'         0.7477    0.1630    0.7858 C.3       1 ACP         0.1111
     20 O2'         0.1373   -0.0577    2.0407 O.3       1 ACP        -0.2728
     21 C1'         1.3733    1.5427    0.6747 C.3       1 ACP         0.2693
     22 N9          0.4520    2.5240    0.1767 N.pl3     1 ACP        -0.3222
     23 C8         -0.3054    2.4845   -1.1576 C.ar      1 ACP         0.1640
     24 N7         -1.0755    3.5806   -1.2691 N.2       1 ACP        -0.1640
     25 C5         -0.8043    4.2306   -0.0942 C.ar      1 ACP         0.0820
     26 C6         -1.4324    5.5335    0.2646 C.ar      1 ACP         0.1640
     27 N6         -2.2885    6.1055   -0.5675 N.pl3     1 ACP        -0.4916
     28 N1         -1.0537    6.0229    1.4478 N.pl3     1 ACP        -0.4390
     29 C2         -0.1096    5.3242    2.2908 C.ar      1 ACP         0.5691
     30 N3          0.4468    4.1904    1.9960 N.ar      1 ACP        -0.4283
     31 C4          0.0631    3.6855    0.7877 C.ar      1 ACP         0.2226
     32 HOG3        5.4246   -2.9437   -8.8844 H         1 ACP         0.2010
     33 H3B1        2.9404   -3.6880   -5.2631 H         1 ACP        -0.0393
     34 H3B2        2.3761   -3.2683   -6.8829 H         1 ACP        -0.0393
     35 H5'1        1.2153   -0.0781   -2.0454 H         1 ACP        -0.0393
     36 H5'2        2.4645   -1.3454   -2.1547 H         1 ACP        -0.0393
     37 H4'         3.8046   -0.1390   -0.4011 H         1 ACP        -0.0393
     38 H3'         1.6787   -1.7627    0.2719 H         1 ACP        -0.0393
     39 HO3'        2.2231   -1.2979    2.3952 H         1 ACP         0.2010
     40 H2'         0.0002   -0.0084   -0.0014 H         1 ACP        -0.0393
     41 HO2'       -0.6132    0.5577    2.1063 H         1 ACP         0.2010
     42 H1'         1.7718    1.9211    1.6015 H         1 ACP        -0.0393
     43 H8         -0.2991    1.7413   -1.9611 H         1 ACP         0.0000
     44 HN61       -2.5167    5.6603   -1.4447 H         1 ACP         0.2048
     45 HN62       -2.7159    6.9882   -0.3270 H         1 ACP         0.2048
     46 H2          0.1059    5.8491    3.2340 H         1 ACP        -0.1292
     47 H47        -1.4532    6.9099    1.7401 H         1 ACP         0.2048
@<TRIPOS>BOND
     1    1    2 2
     2    1    3 1
     3    1    4 1
     4    1    8 1
     5    4   32 1
     6    5    6 2
     7    5    7 1
     8    5    8 1
     9    5   12 1
    10    8   33 1
    11    8   34 1
    12    9   10 2
    13    9   11 1
    14    9   12 1
    15    9   13 1
    16   13   14 1
    17   14   15 1
    18   14   35 1
    19   14   36 1
    20   15   16 1
    21   15   17 1
    22   15   37 1
    23   16   21 1
    24   17   18 1
    25   17   19 1
    26   17   38 1
    27   18   39 1
    28   19   20 1
    29   19   21 1
    30   19   40 1
    31   20   41 1
    32   21   22 1
    33   21   42 1
    34   22   23 ar
    35   22   31 ar
    36   23   24 ar
    37   23   43 1
    38   24   25 ar
    39   25   26 ar
    40   25   31 ar
    41   26   27 1
    42   26   28 ar
    43   27   44 1
    44   27   45 1
    45   28   29 ar
    46   28   47 1
    47   29   30 ar
    48   29   46 1
    49   30   31 ar
@<TRIPOS>SUBSTRUCTURE
     1 ACP         1 GROUP 0 A     ****
@<TRIPOS>MOLECULE
[[5-(6-amino-1,8-dihydropurine-6,8-diylium-7-id-9-yl)-3,4-dihydroxy-tetrahydrofuran-2-yl]methoxy-oxido-phosphoryl]oxy-[[hydroxy(oxido)phosphoryl]methyl]phosphinate
   47    49     1     0     0
SMALL
USER_CHARGES

@<TRIPOS>ATOM
      1 PG          1.4076   -3.7216   -5.0483 P.3       1 ACP        -1.2804
      2 O1G         1.9435   -3.1986   -3.7361 O.co2     1 ACP         0.3195
      3 O2G         1.5501   -5.1705   -5.4542 O.co2     1 ACP         0.3195
      4 O3G        -0.1483   -3.2635   -5.2194 O.3       1 ACP         0.0326
      5 PB          1.8928   -0.8693   -6.5330 P.3       1 ACP        -1.2804
      6 O1B         0.4081   -0.6220   -6.6641 O.co2     1 ACP         0.3195
      7 O2B         2.8867   -0.3554   -7.5491 O.co2     1 ACP         0.3195
      8 C3B         2.1388   -2.6957   -6.3993 C.3       1 ACP         0.8942
      9 PA          2.3321    0.9617   -4.2393 P.3       1 ACP        -1.1062
     10 O1A         0.8820    1.3039   -3.9746 O.co2     1 ACP         0.3195
     11 O2A         3.2385    1.9433   -4.9501 O.co2     1 ACP         0.3195
     12 O3A         2.3890   -0.4639   -5.0338 O.3       1 ACP         0.4672
     13 O5'         3.0198    0.5138   -2.8245 O.3       1 ACP         0.1618
     14 C5'         2.2816   -0.2918   -1.9206 C.3       1 ACP         0.1504
     15 C4'         2.7248    0.0226   -0.4980 C.3       1 ACP         0.1111
     16 O4'         2.4697    1.4219   -0.2462 O.3       1 ACP        -0.1436
     17 C3'         1.9404   -0.7419    0.5596 C.3       1 ACP         0.1111
     18 O3'         2.7418   -0.8086    1.7389 O.3       1 ACP        -0.2728
     19 C2'         0.7477    0.1630    0.7858 C.3       1 ACP         0.1111
     20 O2'         0.1373   -0.0577    2.0407 O.3       1 ACP        -0.2728
     21 C1'         1.3733    1.5427    0.6747 C.3       1 ACP         0.2693
     22 N9          0.4520    2.5240    0.1767 N.pl3     1 ACP        -0.3222
     23 C8          0.5793    3.3338   -1.1209 C.ar      1 ACP         0.1640
     24 N7         -0.4807    4.1508   -1.2458 N.2       1 ACP        -0.1640
     25 C5         -1.1921    3.8572   -0.1126 C.ar      1 ACP         0.0820
     26 C6         -2.4855    4.5203    0.2163 C.ar      1 ACP         0.1640
     27 N6         -2.9873    5.4319   -0.6020 N.pl3     1 ACP        -0.4916
     28 N1         -3.0414    4.1119    1.3596 N.pl3     1 ACP        -0.4390
     29 C2         -2.4169    3.1071    2.1904 C.ar      1 ACP         0.5691
     30 N3         -1.2928    2.5191    1.9210 N.ar      1 ACP        -0.4283
     31 C4         -0.7202    2.9326    0.7534 C.ar      1 ACP         0.2226
     32 HOG3       -0.7992   -3.5577   -4.5471 H         1 ACP         0.2010
     33 H3B1        1.7759   -3.1279   -7.3385 H         1 ACP        -0.0393
     34 H3B2        3.2221   -2.8554   -6.3624 H         1 ACP        -0.0393
     35 H5'1        1.2153   -0.0781   -2.0454 H         1 ACP        -0.0393
     36 H5'2        2.4645   -1.3454   -2.1547 H         1 ACP        -0.0393
     37 H4'         3.8046   -0.1390   -0.4011 H         1 ACP        -0.0393
     38 H3'         1.6787   -1.7627    0.2719 H         1 ACP        -0.0393
     39 HO3'        2.2231   -1.2979    2.3952 H         1 ACP         0.2010
     40 H2'         0.0002   -0.0084   -0.0014 H         1 ACP        -0.0393
     41 HO2'       -0.1554   -0.9852    2.0577 H         1 ACP         0.2010
     42 H1'         1.7718    1.9211    1.6015 H         1 ACP        -0.0393
     43 H8          1.3565    3.3309   -1.8916 H         1 ACP         0.0000
     44 HN61       -2.4952    5.6785   -1.4487 H         1 ACP         0.2048
     45 HN62       -3.8637    5.8828   -0.3819 H         1 ACP         0.2048
     46 H2         -2.9911    2.8734    3.1000 H         1 ACP        -0.1292
     47 H47        -3.9253    4.5332    1.6302 H         1 ACP         0.2048
@<TRIPOS>BOND
     1    1    2 2
     2    1    3 1
     3    1    4 1
     4    1    8 1
     5    4   32 1
     6    5    6 2
     7    5    7 1
     8    5    8 1
     9    5   12 1
    10    8   33 1
    11    8   34 1
    12    9   10 2
    13    9   11 1
    14    9   12 1
    15    9   13 1
    16   13   14 1
    17   14   15 1
    18   14   35 1
    19   14   36 1
    20   15   16 1
    21   15   17 1
    22   15   37 1
    23   16   21 1
    24   17   18 1
    25   17   19 1
    26   17   38 1
    27   18   39 1
    28   19   20 1
    29   19   21 1
    30   19   40 1
    31   20   41 1
    32   21   22 1
    33   21   42 1
    34   22   23 ar
    35   22   31 ar
    36   23   24 ar
    37   23   43 1
    38   24   25 ar
    39   25   26 ar
    40   25   31 ar
    41   26   27 1
    42   26   28 ar
    43   27   44 1
    44   27   45 1
    45   28   29 ar
    46   28   47 1
    47   29   30 ar
    48   29   46 1
    49   30   31 ar
@<TRIPOS>SUBSTRUCTURE
     1 ACP         1 GROUP 0 A     ****
@<TRIPOS>MOLECULE
[[5-(6-amino-1,8-dihydropurine-6,8-diylium-7-id-9-yl)-3,4-dihydroxy-tetrahydrofuran-2-yl]methoxy-oxido-phosphoryl]oxy-[[hydroxy(oxido)phosphoryl]methyl]phosphinate
   47    49     1     0     0
SMALL
USER_CHARGES

@<TRIPOS>ATOM
      1 PG          0.1935   -3.1005   -4.9249 P.3       1 ACP        -1.2804
      2 O1G        -0.7577   -2.4557   -3.9440 O.co2     1 ACP         0.3195
      3 O2G         1.4545   -3.8035   -4.4777 O.co2     1 ACP         0.3195
      4 O3G        -0.6426   -4.0775   -5.9281 O.3       1 ACP         0.0326
      5 PB          1.5457   -0.2441   -5.6916 P.3       1 ACP        -1.2804
      6 O1B         0.6408    0.5026   -4.7396 O.co2     1 ACP         0.3195
      7 O2B         2.0601    0.3798   -6.9686 O.co2     1 ACP         0.3195
      8 C3B         0.6862   -1.8129   -6.1544 C.3       1 ACP         0.8942
      9 PA          3.9534   -0.2075   -3.9573 P.3       1 ACP        -1.1062
     10 O1A         4.6225    0.8729   -4.7788 O.co2     1 ACP         0.3195
     11 O2A         4.7732   -1.3027   -3.3100 O.co2     1 ACP         0.3195
     12 O3A         2.7896   -0.9020   -4.8683 O.3       1 ACP         0.4672
     13 O5'         3.0198    0.5138   -2.8245 O.3       1 ACP         0.1618
     14 C5'         2.2816   -0.2918   -1.9206 C.3       1 ACP         0.1504
     15 C4'         2.7248    0.0226   -0.4980 C.3       1 ACP         0.1111
     16 O4'         2.4697    1.4219   -0.2462 O.3       1 ACP        -0.1436
     17 C3'         1.9404   -0.7419    0.5596 C.3       1 ACP         0.1111
     18 O3'         2.7418   -0.8086    1.7389 O.3       1 ACP        -0.2728
     19 C2'         0.7477    0.1630    0.7858 C.3       1 ACP         0.1111
     20 O2'         0.1373   -0.0577    2.0407 O.3       1 ACP        -0.2728
     21 C1'         1.3733    1.5427    0.6747 C.3       1 ACP         0.2693
     22 N9          0.4520    2.5240    0.1767 N.pl3     1 ACP        -0.3222
     23 C8         -0.3054    2.4845   -1.1576 C.ar      1 ACP         0.1640
     24 N7         -1.0755    3.5806   -1.2691 N.2       1 ACP        -0.1640
     25 C5         -0.8043    4.2306   -0.0942 C.ar      1 ACP         0.0820
     26 C6         -1.4324    5.5335    0.2646 C.ar      1 ACP         0.1640
     27 N6         -2.2885    6.1055   -0.5675 N.pl3     1 ACP        -0.4916
     28 N1         -1.0537    6.0229    1.4478 N.pl3     1 ACP        -0.4390
     29 C2         -0.1096    5.3242    2.2908 C.ar      1 ACP         0.5691
     30 N3          0.4468    4.1904    1.9960 N.ar      1 ACP        -0.4283
     31 C4          0.0631    3.6855    0.7877 C.ar      1 ACP         0.2226
     32 HOG3       -1.1480   -4.8236   -5.5407 H         1 ACP         0.2010
     33 H3B1       -0.2336   -1.5220   -6.6739 H         1 ACP        -0.0393
     34 H3B2        1.3324   -2.3099   -6.8864 H         1 ACP        -0.0393
     35 H5'1        1.2153   -0.0781   -2.0454 H         1 ACP        -0.0393
     36 H5'2        2.4645   -1.3454   -2.1547 H         1 ACP        -0.0393
     37 H4'         3.8046   -0.1390   -0.4011 H         1 ACP        -0.0393
     38 H3'         1.6787   -1.7627    0.2719 H         1 ACP        -0.0393
     39 HO3'        2.9082    0.1071    2.0091 H         1 ACP         0.2010
     40 H2'         0.0002   -0.0084   -0.0014 H         1 ACP        -0.0393
     41 HO2'       -0.1554   -0.9852    2.0577 H         1 ACP         0.2010
     42 H1'         1.7718    1.9211    1.6015 H         1 ACP        -0.0393
     43 H8         -0.2991    1.7413   -1.9611 H         1 ACP         0.0000
     44 HN61       -2.5167    5.6603   -1.4447 H         1 ACP         0.2048
     45 HN62       -2.7159    6.9882   -0.3270 H         1 ACP         0.2048
     46 H2          0.1059    5.8491    3.2340 H         1 ACP        -0.1292
     47 H47        -1.4532    6.9099    1.7401 H         1 ACP         0.2048
@<TRIPOS>BOND
     1    1    2 2
     2    1    3 1
     3    1    4 1
     4    1    8 1
     5    4   32 1
     6    5    6 2
     7    5    7 1
     8    5    8 1
     9    5   12 1
    10    8   33 1
    11    8   34 1
    12    9   10 2
    13    9   11 1
    14    9   12 1
    15    9   13 1
    16   13   14 1
    17   14   15 1
    18   14   35 1
    19   14   36 1
    20   15   16 1
    21   15   17 1
    22   15   37 1
    23   16   21 1
    24   17   18 1
    25   17   19 1
    26   17   38 1
    27   18   39 1
    28   19   20 1
    29   19   21 1
    30   19   40 1
    31   20   41 1
    32   21   22 1
    33   21   42 1
    34   22   23 ar
    35   22   31 ar
    36   23   24 ar
    37   23   43 1
    38   24   25 ar
    39   25   26 ar
    40   25   31 ar
    41   26   27 1
    42   26   28 ar
    43   27   44 1
    44   27   45 1
    45   28   29 ar
    46   28   47 1
    47   29   30 ar
    48   29   46 1
    49   30   31 ar
@<TRIPOS>SUBSTRUCTURE
     1 ACP         1 GROUP 0 A     ****
@<TRIPOS>MOLECULE
[[5-(6-amino-1,8-dihydropurine-6,8-diylium-7-id-9-yl)-3,4-dihydroxy-tetrahydrofuran-2-yl]methoxy-oxido-phosphoryl]oxy-[[hydroxy(oxido)phosphoryl]methyl]phosphinate
   47    49     1     0     0
SMALL
USER_CHARGES

@<TRIPOS>ATOM
      1 PG         -4.0274   -3.5850    5.4821 P.3       1 ACP        -1.2804
      2 O1G        -2.5991   -3.8468    5.8997 O.co2     1 ACP         0.3195
      3 O2G        -5.0752   -3.1048    6.4597 O.co2     1 ACP         0.3195
      4 O3G        -4.0391   -2.6256    4.1634 O.3       1 ACP         0.0326
      5 PB         -3.9180   -5.8914    3.1922 P.3       1 ACP        -1.2804
      6 O1B        -3.9931   -4.8700    2.0815 O.co2     1 ACP         0.3195
      7 O2B        -4.5033   -7.2777    3.0511 O.co2     1 ACP         0.3195
      8 C3B        -4.6716   -5.1278    4.6965 C.3       1 ACP         0.8942
      9 PA         -1.0048   -6.4109    2.9679 P.3       1 ACP        -1.1062
     10 O1A        -1.2176   -7.7423    2.2809 O.co2     1 ACP         0.3195
     11 O2A         0.1532   -6.2121    3.9218 O.co2     1 ACP         0.3195
     12 O3A        -2.3855   -6.0011    3.7378 O.3       1 ACP         0.4672
     13 O5'        -0.9728   -5.2427    1.8237 O.3       1 ACP         0.1618
     14 C5'        -0.7840   -3.8935    2.2172 C.3       1 ACP         0.1504
     15 C4'        -0.0724   -3.1466    1.1027 C.3       1 ACP         0.1111
     16 O4'        -0.8674   -3.1929   -0.0945 O.3       1 ACP        -0.1436
     17 C3'         0.1338   -1.6715    1.4027 C.3       1 ACP         0.1111
     18 O3'         1.2893   -1.4445    2.1808 O.3       1 ACP        -0.2728
     19 C2'         0.2158   -1.0724    0.0128 C.3       1 ACP         0.1111
     20 O2'         1.5141   -1.2448   -0.5513 O.3       1 ACP        -0.2728
     21 C1'        -0.7897   -1.9176   -0.7583 C.3       1 ACP         0.2693
     22 N9         -2.1040   -1.3333   -0.7704 N.pl3     1 ACP        -0.3222
     23 C8         -3.2124   -1.5345    0.2719 C.ar      1 ACP         0.1640
     24 N7         -4.2964   -0.8234   -0.0828 N.2       1 ACP        -0.1640
     25 C5         -3.8754   -0.2386   -1.2478 C.ar      1 ACP         0.0820
     26 C6         -4.7432    0.6719   -2.0470 C.ar      1 ACP         0.1640
     27 N6         -5.9725    0.9415   -1.6366 N.pl3     1 ACP        -0.4916
     28 N1         -4.1703    1.1517   -3.1536 N.pl3     1 ACP        -0.4390
     29 C2         -2.8174    0.7994   -3.5215 C.ar      1 ACP         0.5691
     30 N3         -2.0475    0.0097   -2.8393 N.ar      1 ACP        -0.4283
     31 C4         -2.6278   -0.4836   -1.7071 C.ar      1 ACP         0.2226
     32 HOG3       -3.6294   -1.7367    4.2279 H         1 ACP         0.2010
     33 H3B1       -5.7206   -4.9280    4.4515 H         1 ACP        -0.0393
     34 H3B2       -4.6581   -5.9027    5.4710 H         1 ACP        -0.0393
     35 H5'1       -1.7614   -3.4427    2.4167 H         1 ACP        -0.0393
     36 H5'2       -0.1870   -3.8723    3.1344 H         1 ACP        -0.0393
     37 H4'         0.8883   -3.6447    0.8783 H         1 ACP        -0.0393
     38 H3'        -0.7368   -1.2359    1.9871 H         1 ACP        -0.0393
     39 HO3'        1.3407   -0.4871    2.3218 H         1 ACP         0.2010
     40 H2'        -0.0343   -0.0280    0.0196 H         1 ACP        -0.0393
     41 HO2'        2.1443   -0.7955    0.0378 H         1 ACP         0.2010
     42 H1'        -0.5175   -2.1046   -1.7826 H         1 ACP        -0.0393
     43 H8         -3.2310   -2.1319    1.1889 H         1 ACP         0.0000
     44 HN61       -6.3230    0.5316   -0.7829 H         1 ACP         0.2048
     45 HN62       -6.5628    1.5584   -2.1760 H         1 ACP         0.2048
     46 H2         -2.4822    1.2710   -4.4579 H         1 ACP        -0.1292
     47 H47        -4.7200    1.7780   -3.7346 H         1 ACP         0.2048
@<TRIPOS>BOND
     1    1    2 2
     2    1    3 1
     3    1    4 1
     4    1    8 1
     5    4   32 1
     6    5    6 2
     7    5    7 1
     8    5    8 1
     9    5   12 1
    10    8   33 1
    11    8   34 1
    12    9   10 2
    13    9   11 1
    14    9   12 1
    15    9   13 1
    16   13   14 1
    17   14   15 1
    18   14   35 1
    19   14   36 1
    20   15   16 1
    21   15   17 1
    22   15   37 1
    23   16   21 1
    24   17   18 1
    25   17   19 1
    26   17   38 1
    27   18   39 1
    28   19   20 1
    29   19   21 1
    30   19   40 1
    31   20   41 1
    32   21   22 1
    33   21   42 1
    34   22   23 ar
    35   22   31 ar
    36   23   24 ar
    37   23   43 1
    38   24   25 ar
    39   25   26 ar
    40   25   31 ar
    41   26   27 1
    42   26   28 ar
    43   27   44 1
    44   27   45 1
    45   28   29 ar
    46   28   47 1
    47   29   30 ar
    48   29   46 1
    49   30   31 ar
@<TRIPOS>SUBSTRUCTURE
     1 ACP         1 GROUP 0 A     ****
@<TRIPOS>MOLECULE
[[5-(6-amino-1,8-dihydropurine-6,8-diylium-7-id-9-yl)-3,4-dihydroxy-tetrahydrofuran-2-yl]methoxy-oxido-phosphoryl]oxy-[[hydroxy(oxido)phosphoryl]methyl]phosphinate
   47    49     1     0     0
SMALL
USER_CHARGES

@<TRIPOS>ATOM
      1 PG          4.3280    1.5837   -5.6043 P.3       1 ACP        -1.2804
      2 O1G         4.7888    2.4159   -6.7782 O.co2     1 ACP         0.3195
      3 O2G         4.5077    2.0412   -4.1752 O.co2     1 ACP         0.3195
      4 O3G         2.7781    1.1317   -5.8358 O.3       1 ACP         0.0326
      5 PB          4.8472   -1.4445   -4.5386 P.3       1 ACP        -1.2804
      6 O1B         5.3187   -0.9488   -3.1915 O.co2     1 ACP         0.3195
      7 O2B         5.3827   -2.7133   -5.1613 O.co2     1 ACP         0.3195
      8 C3B         5.1171   -0.0797   -5.7546 C.3       1 ACP         0.8942
      9 PA          2.1362   -2.2698   -3.6575 P.3       1 ACP        -1.1062
     10 O1A         2.4953   -3.7397   -3.6734 O.co2     1 ACP         0.3195
     11 O2A         0.7453   -1.8118   -4.0395 O.co2     1 ACP         0.3195
     12 O3A         3.2175   -1.4646   -4.5792 O.3       1 ACP         0.4672
     13 O5'         2.5237   -1.6631   -2.1889 O.3       1 ACP         0.1618
     14 C5'         2.2816   -0.2918   -1.9206 C.3       1 ACP         0.1504
     15 C4'         2.7248    0.0226   -0.4980 C.3       1 ACP         0.1111
     16 O4'         2.4697    1.4219   -0.2462 O.3       1 ACP        -0.1436
     17 C3'         1.9404   -0.7419    0.5596 C.3       1 ACP         0.1111
     18 O3'         2.7418   -0.8086    1.7389 O.3       1 ACP        -0.2728
     19 C2'         0.7477    0.1630    0.7858 C.3       1 ACP         0.1111
     20 O2'         0.1373   -0.0577    2.0407 O.3       1 ACP        -0.2728
     21 C1'         1.3733    1.5427    0.6747 C.3       1 ACP         0.2693
     22 N9          0.4520    2.5240    0.1767 N.pl3     1 ACP        -0.3222
     23 C8         -0.4598    3.4379    1.0068 C.ar      1 ACP         0.1640
     24 N7         -1.1770    4.2228    0.1845 N.2       1 ACP        -0.1640
     25 C5         -0.7330    3.8149   -1.0455 C.ar      1 ACP         0.0820
     26 C6         -1.2413    4.4029   -2.3169 C.ar      1 ACP         0.1640
     27 N6         -2.1578    5.3575   -2.2831 N.pl3     1 ACP        -0.4916
     28 N1         -0.6977    3.8860   -3.4216 N.pl3     1 ACP        -0.4390
     29 C2          0.3002    2.8419   -3.3591 C.ar      1 ACP         0.5691
     30 N3          0.7548    2.3183   -2.2631 N.ar      1 ACP        -0.4283
     31 C4          0.2027    2.8430   -1.1309 C.ar      1 ACP         0.2226
     32 HOG3        2.0964    1.8305   -5.9313 H         1 ACP         0.2010
     33 H3B1        6.1976    0.0991   -5.7865 H         1 ACP        -0.0393
     34 H3B2        4.8223   -0.4791   -6.7313 H         1 ACP        -0.0393
     35 H5'1        2.8429    0.3140   -2.6391 H         1 ACP        -0.0393
     36 H5'2        1.2125   -0.0906   -2.0420 H         1 ACP        -0.0393
     37 H4'         3.8046   -0.1390   -0.4011 H         1 ACP        -0.0393
     38 H3'         1.6787   -1.7627    0.2719 H         1 ACP        -0.0393
     39 HO3'        2.2231   -1.2979    2.3952 H         1 ACP         0.2010
     40 H2'         0.0002   -0.0084   -0.0014 H         1 ACP        -0.0393
     41 HO2'       -0.6132    0.5577    2.1063 H         1 ACP         0.2010
     42 H1'         1.7718    1.9211    1.6015 H         1 ACP        -0.0393
     43 H8         -0.5892    3.5248    2.0902 H         1 ACP         0.0000
     44 HN61       -2.5128    5.6880   -1.3974 H         1 ACP         0.2048
     45 HN62       -2.5040    5.7581   -3.1431 H         1 ACP         0.2048
     46 H2          0.6550    2.5166   -4.3490 H         1 ACP        -0.1292
     47 H47        -1.0101    4.2527   -4.3160 H         1 ACP         0.2048
@<TRIPOS>BOND
     1    1    2 2
     2    1    3 1
     3    1    4 1
     4    1    8 1
     5    4   32 1
     6    5    6 2
     7    5    7 1
     8    5    8 1
     9    5   12 1
    10    8   33 1
    11    8   34 1
    12    9   10 2
    13    9   11 1
    14    9   12 1
    15    9   13 1
    16   13   14 1
    17   14   15 1
    18   14   35 1
    19   14   36 1
    20   15   16 1
    21   15   17 1
    22   15   37 1
    23   16   21 1
    24   17   18 1
    25   17   19 1
    26   17   38 1
    27   18   39 1
    28   19   20 1
    29   19   21 1
    30   19   40 1
    31   20   41 1
    32   21   22 1
    33   21   42 1
    34   22   23 ar
    35   22   31 ar
    36   23   24 ar
    37   23   43 1
    38   24   25 ar
    39   25   26 ar
    40   25   31 ar
    41   26   27 1
    42   26   28 ar
    43   27   44 1
    44   27   45 1
    45   28   29 ar
    46   28   47 1
    47   29   30 ar
    48   29   46 1
    49   30   31 ar
@<TRIPOS>SUBSTRUCTURE
     1 ACP         1 GROUP 0 A     ****
@<TRIPOS>MOLECULE
[[5-(6-amino-1,8-dihydropurine-6,8-diylium-7-id-9-yl)-3,4-dihydroxy-tetrahydrofuran-2-yl]methoxy-oxido-phosphoryl]oxy-[[hydroxy(oxido)phosphoryl]methyl]phosphinate
   47    49     1     0     0
SMALL
USER_CHARGES

@<TRIPOS>ATOM
      1 PG          3.5797    0.8185   -6.9561 P.3       1 ACP        -1.2804
      2 O1G         4.2598    1.1841   -8.2548 O.co2     1 ACP         0.3195
      3 O2G         4.1072    1.2767   -5.6160 O.co2     1 ACP         0.3195
      4 O3G         1.9903    1.1691   -7.0594 O.3       1 ACP         0.0326
      5 PB          2.6765   -1.9378   -5.4856 P.3       1 ACP        -1.2804
      6 O1B         2.7560   -3.4119   -5.8073 O.co2     1 ACP         0.3195
      7 O2B         1.3672   -1.2538   -5.1659 O.co2     1 ACP         0.3195
      8 C3B         3.4442   -1.0228   -6.8954 C.3       1 ACP         0.8942
      9 PA          3.9654   -2.1111   -2.8181 P.3       1 ACP        -1.1062
     10 O1A         5.0498   -1.2970   -2.1465 O.co2     1 ACP         0.3195
     11 O2A         4.0486   -3.6217   -2.8585 O.co2     1 ACP         0.3195
     12 O3A         3.7791   -1.5622   -4.3449 O.3       1 ACP         0.4672
     13 O5'         2.5237   -1.6631   -2.1889 O.3       1 ACP         0.1618
     14 C5'         2.2816   -0.2918   -1.9206 C.3       1 ACP         0.1504
     15 C4'         2.7248    0.0226   -0.4980 C.3       1 ACP         0.1111
     16 O4'         2.4697    1.4219   -0.2462 O.3       1 ACP        -0.1436
     17 C3'         1.9404   -0.7419    0.5596 C.3       1 ACP         0.1111
     18 O3'         2.7418   -0.8086    1.7389 O.3       1 ACP        -0.2728
     19 C2'         0.7477    0.1630    0.7858 C.3       1 ACP         0.1111
     20 O2'         0.1373   -0.0577    2.0407 O.3       1 ACP        -0.2728
     21 C1'         1.3733    1.5427    0.6747 C.3       1 ACP         0.2693
     22 N9          0.4520    2.5240    0.1767 N.pl3     1 ACP        -0.3222
     23 C8          0.1798    2.8712   -1.2933 C.ar      1 ACP         0.1640
     24 N7         -0.7494    3.8400   -1.3610 N.2       1 ACP        -0.1640
     25 C5         -1.0173    4.0603   -0.0358 C.ar      1 ACP         0.0820
     26 C6         -2.0105    5.0717    0.4241 C.ar      1 ACP         0.1640
     27 N6         -2.6723    5.7982   -0.4628 N.pl3     1 ACP        -0.4916
     28 N1         -2.1445    5.1522    1.7502 N.pl3     1 ACP        -0.4390
     29 C2         -1.3755    4.3143    2.6426 C.ar      1 ACP         0.5691
     30 N3         -0.5075    3.4292    2.2616 N.ar      1 ACP        -0.4283
     31 C4         -0.3667    3.3425    0.9070 C.ar      1 ACP         0.2226
     32 HOG3        1.7263    2.0986   -7.2281 H         1 ACP         0.2010
     33 H3B1        4.4661   -1.4054   -6.9948 H         1 ACP        -0.0393
     34 H3B2        2.8924   -1.3259   -7.7920 H         1 ACP        -0.0393
     35 H5'1        2.8429    0.3140   -2.6391 H         1 ACP        -0.0393
     36 H5'2        1.2125   -0.0906   -2.0420 H         1 ACP        -0.0393
     37 H4'         3.8046   -0.1390   -0.4011 H         1 ACP        -0.0393
     38 H3'         1.6787   -1.7627    0.2719 H         1 ACP        -0.0393
     39 HO3'        3.5553   -1.2733    1.4913 H         1 ACP         0.2010
     40 H2'         0.0002   -0.0084   -0.0014 H         1 ACP        -0.0393
     41 HO2'        0.8091    0.1203    2.7213 H         1 ACP         0.2010
     42 H1'         1.7718    1.9211    1.6015 H         1 ACP        -0.0393
     43 H8          0.6089    2.4651   -2.2147 H         1 ACP         0.0000
     44 HN61       -2.5055    5.6680   -1.4503 H         1 ACP         0.2048
     45 HN62       -3.3462    6.4841   -0.1542 H         1 ACP         0.2048
     46 H2         -1.5932    4.4937    3.7066 H         1 ACP        -0.1292
     47 H47        -2.8098    5.8270    2.1160 H         1 ACP         0.2048
@<TRIPOS>BOND
     1    1    2 2
     2    1    3 1
     3    1    4 1
     4    1    8 1
     5    4   32 1
     6    5    6 2
     7    5    7 1
     8    5    8 1
     9    5   12 1
    10    8   33 1
    11    8   34 1
    12    9   10 2
    13    9   11 1
    14    9   12 1
    15    9   13 1
    16   13   14 1
    17   14   15 1
    18   14   35 1
    19   14   36 1
    20   15   16 1
    21   15   17 1
    22   15   37 1
    23   16   21 1
    24   17   18 1
    25   17   19 1
    26   17   38 1
    27   18   39 1
    28   19   20 1
    29   19   21 1
    30   19   40 1
    31   20   41 1
    32   21   22 1
    33   21   42 1
    34   22   23 ar
    35   22   31 ar
    36   23   24 ar
    37   23   43 1
    38   24   25 ar
    39   25   26 ar
    40   25   31 ar
    41   26   27 1
    42   26   28 ar
    43   27   44 1
    44   27   45 1
    45   28   29 ar
    46   28   47 1
    47   29   30 ar
    48   29   46 1
    49   30   31 ar
@<TRIPOS>SUBSTRUCTURE
     1 ACP         1 GROUP 0 A     ****
@<TRIPOS>MOLECULE
[[5-(6-amino-1,8-dihydropurine-6,8-diylium-7-id-9-yl)-3,4-dihydroxy-tetrahydrofuran-2-yl]methoxy-oxido-phosphoryl]oxy-[[hydroxy(oxido)phosphoryl]methyl]phosphinate
   47    49     1     0     0
SMALL
USER_CHARGES

@<TRIPOS>ATOM
      1 PG          1.5944   -5.6238    6.6470 P.3       1 ACP        -1.2804
      2 O1G         1.9562   -6.0887    8.0383 O.co2     1 ACP         0.3195
      3 O2G         0.3968   -4.7410    6.3809 O.co2     1 ACP         0.3195
      4 O3G         2.9105   -4.9784    5.9320 O.3       1 ACP         0.0326
      5 PB          0.9836   -7.0520    3.7900 P.3       1 ACP        -1.2804
      6 O1B         0.9388   -8.4729    3.2785 O.co2     1 ACP         0.3195
      7 O2B         1.8599   -5.9962    3.1563 O.co2     1 ACP         0.3195
      8 C3B         1.4208   -7.1243    5.5838 C.3       1 ACP         0.8942
      9 PA         -1.7212   -6.2756    2.8475 P.3       1 ACP        -1.1062
     10 O1A        -2.8677   -5.5415    3.5081 O.co2     1 ACP         0.3195
     11 O2A        -1.9532   -7.5972    2.1476 O.co2     1 ACP         0.3195
     12 O3A        -0.5331   -6.4756    3.9500 O.3       1 ACP         0.4672
     13 O5'        -0.9728   -5.2427    1.8237 O.3       1 ACP         0.1618
     14 C5'        -0.7840   -3.8935    2.2172 C.3       1 ACP         0.1504
     15 C4'        -0.0724   -3.1466    1.1027 C.3       1 ACP         0.1111
     16 O4'        -0.8674   -3.1929   -0.0945 O.3       1 ACP        -0.1436
     17 C3'         0.1338   -1.6715    1.4027 C.3       1 ACP         0.1111
     18 O3'         1.2893   -1.4445    2.1808 O.3       1 ACP        -0.2728
     19 C2'         0.2158   -1.0724    0.0128 C.3       1 ACP         0.1111
     20 O2'         1.5141   -1.2448   -0.5513 O.3       1 ACP        -0.2728
     21 C1'        -0.7897   -1.9176   -0.7583 C.3       1 ACP         0.2693
     22 N9         -2.1040   -1.3333   -0.7704 N.pl3     1 ACP        -0.3222
     23 C8         -3.2124   -1.5345    0.2719 C.ar      1 ACP         0.1640
     24 N7         -4.2964   -0.8234   -0.0828 N.2       1 ACP        -0.1640
     25 C5         -3.8754   -0.2386   -1.2478 C.ar      1 ACP         0.0820
     26 C6         -4.7432    0.6719   -2.0470 C.ar      1 ACP         0.1640
     27 N6         -5.9725    0.9415   -1.6366 N.pl3     1 ACP        -0.4916
     28 N1         -4.1703    1.1517   -3.1536 N.pl3     1 ACP        -0.4390
     29 C2         -2.8174    0.7994   -3.5215 C.ar      1 ACP         0.5691
     30 N3         -2.0475    0.0097   -2.8393 N.ar      1 ACP        -0.4283
     31 C4         -2.6278   -0.4836   -1.7071 C.ar      1 ACP         0.2226
     32 HOG3        3.3383   -4.2025    6.3528 H         1 ACP         0.2010
     33 H3B1        0.6604   -7.7500    6.0642 H         1 ACP        -0.0393
     34 H3B2        2.3733   -7.6625    5.6438 H         1 ACP        -0.0393
     35 H5'1       -1.7614   -3.4427    2.4167 H         1 ACP        -0.0393
     36 H5'2       -0.1870   -3.8723    3.1344 H         1 ACP        -0.0393
     37 H4'         0.8883   -3.6447    0.8783 H         1 ACP        -0.0393
     38 H3'        -0.7368   -1.2359    1.9871 H         1 ACP        -0.0393
     39 HO3'        1.3407   -0.4871    2.3218 H         1 ACP         0.2010
     40 H2'        -0.0343   -0.0280    0.0196 H         1 ACP        -0.0393
     41 HO2'        2.1443   -0.7955    0.0378 H         1 ACP         0.2010
     42 H1'        -0.5175   -2.1046   -1.7826 H         1 ACP        -0.0393
     43 H8         -3.2310   -2.1319    1.1889 H         1 ACP         0.0000
     44 HN61       -6.3230    0.5316   -0.7829 H         1 ACP         0.2048
     45 HN62       -6.5628    1.5584   -2.1760 H         1 ACP         0.2048
     46 H2         -2.4822    1.2710   -4.4579 H         1 ACP        -0.1292
     47 H47        -4.7200    1.7780   -3.7346 H         1 ACP         0.2048
@<TRIPOS>BOND
     1    1    2 2
     2    1    3 1
     3    1    4 1
     4    1    8 1
     5    4   32 1
     6    5    6 2
     7    5    7 1
     8    5    8 1
     9    5   12 1
    10    8   33 1
    11    8   34 1
    12    9   10 2
    13    9   11 1
    14    9   12 1
    15    9   13 1
    16   13   14 1
    17   14   15 1
    18   14   35 1
    19   14   36 1
    20   15   16 1
    21   15   17 1
    22   15   37 1
    23   16   21 1
    24   17   18 1
    25   17   19 1
    26   17   38 1
    27   18   39 1
    28   19   20 1
    29   19   21 1
    30   19   40 1
    31   20   41 1
    32   21   22 1
    33   21   42 1
    34   22   23 ar
    35   22   31 ar
    36   23   24 ar
    37   23   43 1
    38   24   25 ar
    39   25   26 ar
    40   25   31 ar
    41   26   27 1
    42   26   28 ar
    43   27   44 1
    44   27   45 1
    45   28   29 ar
    46   28   47 1
    47   29   30 ar
    48   29   46 1
    49   30   31 ar
@<TRIPOS>SUBSTRUCTURE
     1 ACP         1 GROUP 0 A     ****
@<TRIPOS>MOLECULE
[[5-(6-amino-1,8-dihydropurine-6,8-diylium-7-id-9-yl)-3,4-dihydroxy-tetrahydrofuran-2-yl]methoxy-oxido-phosphoryl]oxy-[[hydroxy(oxido)phosphoryl]methyl]phosphinate
   47    49     1     0     0
SMALL
USER_CHARGES

@<TRIPOS>ATOM
      1 PG         -1.2937   -1.7652   -4.8063 P.3       1 ACP        -1.2804
      2 O1G        -2.7751   -1.4761   -4.7369 O.co2     1 ACP         0.3195
      3 O2G        -0.4215   -1.7920   -3.5723 O.co2     1 ACP         0.3195
      4 O3G        -1.0471   -3.1256   -5.6715 O.3       1 ACP         0.0326
      5 PB          1.2580   -0.5250   -6.3956 P.3       1 ACP        -1.2804
      6 O1B         1.4752    0.5937   -7.3876 O.co2     1 ACP         0.3195
      7 O2B         1.6794   -1.9478   -6.6828 O.co2     1 ACP         0.3195
      8 C3B        -0.5435   -0.5580   -5.9861 C.3       1 ACP         0.8942
      9 PA          3.3324   -0.0529   -4.3266 P.3       1 ACP        -1.1062
     10 O1A         4.1264    0.9964   -5.0738 O.co2     1 ACP         0.3195
     11 O2A         3.8347   -1.4774   -4.2320 O.co2     1 ACP         0.3195
     12 O3A         1.8151   -0.0782   -4.9299 O.3       1 ACP         0.4672
     13 O5'         3.0198    0.5138   -2.8245 O.3       1 ACP         0.1618
     14 C5'         2.2816   -0.2918   -1.9206 C.3       1 ACP         0.1504
     15 C4'         2.7248    0.0226   -0.4980 C.3       1 ACP         0.1111
     16 O4'         2.4697    1.4219   -0.2462 O.3       1 ACP        -0.1436
     17 C3'         1.9404   -0.7419    0.5596 C.3       1 ACP         0.1111
     18 O3'         2.7418   -0.8086    1.7389 O.3       1 ACP        -0.2728
     19 C2'         0.7477    0.1630    0.7858 C.3       1 ACP         0.1111
     20 O2'         0.1373   -0.0577    2.0407 O.3       1 ACP        -0.2728
     21 C1'         1.3733    1.5427    0.6747 C.3       1 ACP         0.2693
     22 N9          0.4520    2.5240    0.1767 N.pl3     1 ACP        -0.3222
     23 C8         -0.4598    3.4379    1.0068 C.ar      1 ACP         0.1640
     24 N7         -1.1770    4.2228    0.1845 N.2       1 ACP        -0.1640
     25 C5         -0.7330    3.8149   -1.0455 C.ar      1 ACP         0.0820
     26 C6         -1.2413    4.4029   -2.3169 C.ar      1 ACP         0.1640
     27 N6         -2.1578    5.3575   -2.2831 N.pl3     1 ACP        -0.4916
     28 N1         -0.6977    3.8860   -3.4216 N.pl3     1 ACP        -0.4390
     29 C2          0.3002    2.8419   -3.3591 C.ar      1 ACP         0.5691
     30 N3          0.7548    2.3183   -2.2631 N.ar      1 ACP        -0.4283
     31 C4          0.2027    2.8430   -1.1309 C.ar      1 ACP         0.2226
     32 HOG3       -1.4515   -3.9612   -5.3547 H         1 ACP         0.2010
     33 H3B1       -0.7931    0.4371   -5.6013 H         1 ACP        -0.0393
     34 H3B2       -1.0703   -0.6823   -6.9387 H         1 ACP        -0.0393
     35 H5'1        1.2153   -0.0781   -2.0454 H         1 ACP        -0.0393
     36 H5'2        2.4645   -1.3454   -2.1547 H         1 ACP        -0.0393
     37 H4'         3.8046   -0.1390   -0.4011 H         1 ACP        -0.0393
     38 H3'         1.6787   -1.7627    0.2719 H         1 ACP        -0.0393
     39 HO3'        2.2231   -1.2979    2.3952 H         1 ACP         0.2010
     40 H2'         0.0002   -0.0084   -0.0014 H         1 ACP        -0.0393
     41 HO2'       -0.6132    0.5577    2.1063 H         1 ACP         0.2010
     42 H1'         1.7718    1.9211    1.6015 H         1 ACP        -0.0393
     43 H8         -0.5892    3.5248    2.0902 H         1 ACP         0.0000
     44 HN61       -2.5128    5.6880   -1.3974 H         1 ACP         0.2048
     45 HN62       -2.5040    5.7581   -3.1431 H         1 ACP         0.2048
     46 H2          0.6550    2.5166   -4.3490 H         1 ACP        -0.1292
     47 H47        -1.0101    4.2527   -4.3160 H         1 ACP         0.2048
@<TRIPOS>BOND
     1    1    2 2
     2    1    3 1
     3    1    4 1
     4    1    8 1
     5    4   32 1
     6    5    6 2
     7    5    7 1
     8    5    8 1
     9    5   12 1
    10    8   33 1
    11    8   34 1
    12    9   10 2
    13    9   11 1
    14    9   12 1
    15    9   13 1
    16   13   14 1
    17   14   15 1
    18   14   35 1
    19   14   36 1
    20   15   16 1
    21   15   17 1
    22   15   37 1
    23   16   21 1
    24   17   18 1
    25   17   19 1
    26   17   38 1
    27   18   39 1
    28   19   20 1
    29   19   21 1
    30   19   40 1
    31   20   41 1
    32   21   22 1
    33   21   42 1
    34   22   23 ar
    35   22   31 ar
    36   23   24 ar
    37   23   43 1
    38   24   25 ar
    39   25   26 ar
    40   25   31 ar
    41   26   27 1
    42   26   28 ar
    43   27   44 1
    44   27   45 1
    45   28   29 ar
    46   28   47 1
    47   29   30 ar
    48   29   46 1
    49   30   31 ar
@<TRIPOS>SUBSTRUCTURE
     1 ACP         1 GROUP 0 A     ****
@<TRIPOS>MOLECULE
[[5-(6-amino-1,8-dihydropurine-6,8-diylium-7-id-9-yl)-3,4-dihydroxy-tetrahydrofuran-2-yl]methoxy-oxido-phosphoryl]oxy-[[hydroxy(oxido)phosphoryl]methyl]phosphinate
   47    49     1     0     0
SMALL
USER_CHARGES

@<TRIPOS>ATOM
      1 PG          0.8376    0.7335   -6.2994 P.3       1 ACP        -1.2804
      2 O1G        -0.4548    1.1001   -6.9908 O.co2     1 ACP         0.3195
      3 O2G         2.0701    1.6039   -6.3859 O.co2     1 ACP         0.3195
      4 O3G         0.5347    0.3801   -4.7363 O.3       1 ACP         0.0326
      5 PB          2.8371   -1.8312   -6.2887 P.3       1 ACP        -1.2804
      6 O1B         4.0226   -0.9786   -6.6764 O.co2     1 ACP         0.3195
      7 O2B         2.7136   -3.2770   -6.7115 O.co2     1 ACP         0.3195
      8 C3B         1.3155   -0.9577   -6.8684 C.3       1 ACP         0.8942
      9 PA          3.5286   -2.0718   -3.4129 P.3       1 ACP        -1.1062
     10 O1A         4.6988   -1.1125   -3.4065 O.co2     1 ACP         0.3195
     11 O2A         3.7579   -3.5677   -3.3967 O.co2     1 ACP         0.3195
     12 O3A         2.5709   -1.7089   -4.6849 O.3       1 ACP         0.4672
     13 O5'         2.5237   -1.6631   -2.1889 O.3       1 ACP         0.1618
     14 C5'         2.2816   -0.2918   -1.9206 C.3       1 ACP         0.1504
     15 C4'         2.7248    0.0226   -0.4980 C.3       1 ACP         0.1111
     16 O4'         2.4697    1.4219   -0.2462 O.3       1 ACP        -0.1436
     17 C3'         1.9404   -0.7419    0.5596 C.3       1 ACP         0.1111
     18 O3'         2.7418   -0.8086    1.7389 O.3       1 ACP        -0.2728
     19 C2'         0.7477    0.1630    0.7858 C.3       1 ACP         0.1111
     20 O2'         0.1373   -0.0577    2.0407 O.3       1 ACP        -0.2728
     21 C1'         1.3733    1.5427    0.6747 C.3       1 ACP         0.2693
     22 N9          0.4520    2.5240    0.1767 N.pl3     1 ACP        -0.3222
     23 C8         -0.3054    2.4845   -1.1576 C.ar      1 ACP         0.1640
     24 N7         -1.0755    3.5806   -1.2691 N.2       1 ACP        -0.1640
     25 C5         -0.8043    4.2306   -0.0942 C.ar      1 ACP         0.0820
     26 C6         -1.4324    5.5335    0.2646 C.ar      1 ACP         0.1640
     27 N6         -2.2885    6.1055   -0.5675 N.pl3     1 ACP        -0.4916
     28 N1         -1.0537    6.0229    1.4478 N.pl3     1 ACP        -0.4390
     29 C2         -0.1096    5.3242    2.2908 C.ar      1 ACP         0.5691
     30 N3          0.4468    4.1904    1.9960 N.ar      1 ACP        -0.4283
     31 C4          0.0631    3.6855    0.7877 C.ar      1 ACP         0.2226
     32 HOG3        0.1342    1.0730   -4.1692 H         1 ACP         0.2010
     33 H3B1        1.3862   -0.9015   -7.9604 H         1 ACP        -0.0393
     34 H3B2        0.4749   -1.6181   -6.6283 H         1 ACP        -0.0393
     35 H5'1        2.8429    0.3140   -2.6391 H         1 ACP        -0.0393
     36 H5'2        1.2125   -0.0906   -2.0420 H         1 ACP        -0.0393
     37 H4'         3.8046   -0.1390   -0.4011 H         1 ACP        -0.0393
     38 H3'         1.6787   -1.7627    0.2719 H         1 ACP        -0.0393
     39 HO3'        3.5553   -1.2733    1.4913 H         1 ACP         0.2010
     40 H2'         0.0002   -0.0084   -0.0014 H         1 ACP        -0.0393
     41 HO2'       -0.6132    0.5577    2.1063 H         1 ACP         0.2010
     42 H1'         1.7718    1.9211    1.6015 H         1 ACP        -0.0393
     43 H8         -0.2991    1.7413   -1.9611 H         1 ACP         0.0000
     44 HN61       -2.5167    5.6603   -1.4447 H         1 ACP         0.2048
     45 HN62       -2.7159    6.9882   -0.3270 H         1 ACP         0.2048
     46 H2          0.1059    5.8491    3.2340 H         1 ACP        -0.1292
     47 H47        -1.4532    6.9099    1.7401 H         1 ACP         0.2048
@<TRIPOS>BOND
     1    1    2 2
     2    1    3 1
     3    1    4 1
     4    1    8 1
     5    4   32 1
     6    5    6 2
     7    5    7 1
     8    5    8 1
     9    5   12 1
    10    8   33 1
    11    8   34 1
    12    9   10 2
    13    9   11 1
    14    9   12 1
    15    9   13 1
    16   13   14 1
    17   14   15 1
    18   14   35 1
    19   14   36 1
    20   15   16 1
    21   15   17 1
    22   15   37 1
    23   16   21 1
    24   17   18 1
    25   17   19 1
    26   17   38 1
    27   18   39 1
    28   19   20 1
    29   19   21 1
    30   19   40 1
    31   20   41 1
    32   21   22 1
    33   21   42 1
    34   22   23 ar
    35   22   31 ar
    36   23   24 ar
    37   23   43 1
    38   24   25 ar
    39   25   26 ar
    40   25   31 ar
    41   26   27 1
    42   26   28 ar
    43   27   44 1
    44   27   45 1
    45   28   29 ar
    46   28   47 1
    47   29   30 ar
    48   29   46 1
    49   30   31 ar
@<TRIPOS>SUBSTRUCTURE
     1 ACP         1 GROUP 0 A     ****
@<TRIPOS>MOLECULE
[[5-(6-amino-1,8-dihydropurine-6,8-diylium-7-id-9-yl)-3,4-dihydroxy-tetrahydrofuran-2-yl]methoxy-oxido-phosphoryl]oxy-[[hydroxy(oxido)phosphoryl]methyl]phosphinate
   47    49     1     0     0
SMALL
USER_CHARGES

@<TRIPOS>ATOM
      1 PG          0.5172   -3.5952   -4.7989 P.3       1 ACP        -1.2804
      2 O1G        -0.8501   -2.9908   -5.0182 O.co2     1 ACP         0.3195
      3 O2G         1.2763   -3.4169   -3.5043 O.co2     1 ACP         0.3195
      4 O3G         0.4785   -5.1784   -5.1886 O.3       1 ACP         0.0326
      5 PB          1.9778   -1.2259   -6.4806 P.3       1 ACP        -1.2804
      6 O1B         0.6621   -0.5385   -6.7617 O.co2     1 ACP         0.3195
      7 O2B         3.1379   -1.1686   -7.4476 O.co2     1 ACP         0.3195
      8 C3B         1.6128   -3.0097   -6.1660 C.3       1 ACP         0.8942
      9 PA          2.8601    0.6157   -4.3273 P.3       1 ACP        -1.1062
     10 O1A         1.5863    1.4256   -4.2209 O.co2     1 ACP         0.3195
     11 O2A         4.0722    1.1753   -5.0401 O.co2     1 ACP         0.3195
     12 O3A         2.4963   -0.8339   -4.9854 O.3       1 ACP         0.4672
     13 O5'         3.2883    0.1336   -2.8242 O.3       1 ACP         0.1618
     14 C5'         2.2816   -0.2918   -1.9206 C.3       1 ACP         0.1504
     15 C4'         2.7248    0.0226   -0.4980 C.3       1 ACP         0.1111
     16 O4'         2.4697    1.4219   -0.2462 O.3       1 ACP        -0.1436
     17 C3'         1.9404   -0.7419    0.5596 C.3       1 ACP         0.1111
     18 O3'         2.7418   -0.8086    1.7389 O.3       1 ACP        -0.2728
     19 C2'         0.7477    0.1630    0.7858 C.3       1 ACP         0.1111
     20 O2'         0.1373   -0.0577    2.0407 O.3       1 ACP        -0.2728
     21 C1'         1.3733    1.5427    0.6747 C.3       1 ACP         0.2693
     22 N9          0.4520    2.5240    0.1767 N.pl3     1 ACP        -0.3222
     23 C8         -0.3054    2.4845   -1.1576 C.ar      1 ACP         0.1640
     24 N7         -1.0755    3.5806   -1.2691 N.2       1 ACP        -0.1640
     25 C5         -0.8043    4.2306   -0.0942 C.ar      1 ACP         0.0820
     26 C6         -1.4324    5.5335    0.2646 C.ar      1 ACP         0.1640
     27 N6         -2.2885    6.1055   -0.5675 N.pl3     1 ACP        -0.4916
     28 N1         -1.0537    6.0229    1.4478 N.pl3     1 ACP        -0.4390
     29 C2         -0.1096    5.3242    2.2908 C.ar      1 ACP         0.5691
     30 N3          0.4468    4.1904    1.9960 N.ar      1 ACP        -0.4283
     31 C4          0.0631    3.6855    0.7877 C.ar      1 ACP         0.2226
     32 HOG3       -0.1369   -5.7655   -4.7001 H         1 ACP         0.2010
     33 H3B1        1.1812   -3.4067   -7.0916 H         1 ACP        -0.0393
     34 H3B2        2.5827   -3.4982   -6.0211 H         1 ACP        -0.0393
     35 H5'1        1.3500    0.2325   -2.1560 H         1 ACP        -0.0393
     36 H5'2        2.1267   -1.3683   -2.0444 H         1 ACP        -0.0393
     37 H4'         3.8046   -0.1390   -0.4011 H         1 ACP        -0.0393
     38 H3'         1.6787   -1.7627    0.2719 H         1 ACP        -0.0393
     39 HO3'        3.5553   -1.2733    1.4913 H         1 ACP         0.2010
     40 H2'         0.0002   -0.0084   -0.0014 H         1 ACP        -0.0393
     41 HO2'       -0.6132    0.5577    2.1063 H         1 ACP         0.2010
     42 H1'         1.7718    1.9211    1.6015 H         1 ACP        -0.0393
     43 H8         -0.2991    1.7413   -1.9611 H         1 ACP         0.0000
     44 HN61       -2.5167    5.6603   -1.4447 H         1 ACP         0.2048
     45 HN62       -2.7159    6.9882   -0.3270 H         1 ACP         0.2048
     46 H2          0.1059    5.8491    3.2340 H         1 ACP        -0.1292
     47 H47        -1.4532    6.9099    1.7401 H         1 ACP         0.2048
@<TRIPOS>BOND
     1    1    2 2
     2    1    3 1
     3    1    4 1
     4    1    8 1
     5    4   32 1
     6    5    6 2
     7    5    7 1
     8    5    8 1
     9    5   12 1
    10    8   33 1
    11    8   34 1
    12    9   10 2
    13    9   11 1
    14    9   12 1
    15    9   13 1
    16   13   14 1
    17   14   15 1
    18   14   35 1
    19   14   36 1
    20   15   16 1
    21   15   17 1
    22   15   37 1
    23   16   21 1
    24   17   18 1
    25   17   19 1
    26   17   38 1
    27   18   39 1
    28   19   20 1
    29   19   21 1
    30   19   40 1
    31   20   41 1
    32   21   22 1
    33   21   42 1
    34   22   23 ar
    35   22   31 ar
    36   23   24 ar
    37   23   43 1
    38   24   25 ar
    39   25   26 ar
    40   25   31 ar
    41   26   27 1
    42   26   28 ar
    43   27   44 1
    44   27   45 1
    45   28   29 ar
    46   28   47 1
    47   29   30 ar
    48   29   46 1
    49   30   31 ar
@<TRIPOS>SUBSTRUCTURE
     1 ACP         1 GROUP 0 A     ****
@<TRIPOS>MOLECULE
[[5-(6-amino-1,8-dihydropurine-6,8-diylium-7-id-9-yl)-3,4-dihydroxy-tetrahydrofuran-2-yl]methoxy-oxido-phosphoryl]oxy-[[hydroxy(oxido)phosphoryl]methyl]phosphinate
   47    49     1     0     0
SMALL
USER_CHARGES

@<TRIPOS>ATOM
      1 PG          5.1701   -4.0155   -2.2378 P.3       1 ACP        -1.2804
      2 O1G         6.1710   -4.7291   -1.3593 O.co2     1 ACP         0.3195
      3 O2G         3.9993   -4.7333   -2.8689 O.co2     1 ACP         0.3195
      4 O3G         4.6351   -2.6778   -1.4736 O.3       1 ACP         0.0326
      5 PB          5.3023   -2.1900   -4.9258 P.3       1 ACP        -1.2804
      6 O1B         4.3452   -3.1009   -5.6584 O.co2     1 ACP         0.3195
      7 O2B         6.3947   -1.4286   -5.6409 O.co2     1 ACP         0.3195
      8 C3B         6.1089   -3.1897   -3.5975 C.3       1 ACP         0.8942
      9 PA          3.3324   -0.0529   -4.3266 P.3       1 ACP        -1.1062
     10 O1A         2.0985   -0.7700   -4.8296 O.co2     1 ACP         0.3195
     11 O2A         3.9793    1.0390   -5.1511 O.co2     1 ACP         0.3195
     12 O3A         4.4675   -1.1702   -3.9660 O.3       1 ACP         0.4672
     13 O5'         3.0198    0.5138   -2.8245 O.3       1 ACP         0.1618
     14 C5'         2.2816   -0.2918   -1.9206 C.3       1 ACP         0.1504
     15 C4'         2.7248    0.0226   -0.4980 C.3       1 ACP         0.1111
     16 O4'         2.4697    1.4219   -0.2462 O.3       1 ACP        -0.1436
     17 C3'         1.9404   -0.7419    0.5596 C.3       1 ACP         0.1111
     18 O3'         2.7418   -0.8086    1.7389 O.3       1 ACP        -0.2728
     19 C2'         0.7477    0.1630    0.7858 C.3       1 ACP         0.1111
     20 O2'         0.1373   -0.0577    2.0407 O.3       1 ACP        -0.2728
     21 C1'         1.3733    1.5427    0.6747 C.3       1 ACP         0.2693
     22 N9          0.4520    2.5240    0.1767 N.pl3     1 ACP        -0.3222
     23 C8         -0.7463    2.2774   -0.7501 C.ar      1 ACP         0.1640
     24 N7         -1.3714    3.4419   -0.9948 N.2       1 ACP        -0.1640
     25 C5         -0.6104    4.3223   -0.2723 C.ar      1 ACP         0.0820
     26 C6         -0.9062    5.7820   -0.2194 C.ar      1 ACP         0.1640
     27 N6         -1.9385    6.2713   -0.8881 N.pl3     1 ACP        -0.4916
     28 N1         -0.0613    6.4906    0.5336 N.pl3     1 ACP        -0.4390
     29 C2          1.0416    5.8662    1.2291 C.ar      1 ACP         0.5691
     30 N3          1.3146    4.5989    1.1954 N.ar      1 ACP        -0.4283
     31 C4          0.4541    3.8697    0.4273 C.ar      1 ACP         0.2226
     32 HOG3        4.1818   -2.7822   -0.6100 H         1 ACP         0.2010
     33 H3B1        6.6709   -3.9828   -4.1032 H         1 ACP        -0.0393
     34 H3B2        6.8376   -2.5271   -3.1174 H         1 ACP        -0.0393
     35 H5'1        1.2153   -0.0781   -2.0454 H         1 ACP        -0.0393
     36 H5'2        2.4645   -1.3454   -2.1547 H         1 ACP        -0.0393
     37 H4'         3.8046   -0.1390   -0.4011 H         1 ACP        -0.0393
     38 H3'         1.6787   -1.7627    0.2719 H         1 ACP        -0.0393
     39 HO3'        2.2231   -1.2979    2.3952 H         1 ACP         0.2010
     40 H2'         0.0002   -0.0084   -0.0014 H         1 ACP        -0.0393
     41 HO2'       -0.6132    0.5577    2.1063 H         1 ACP         0.2010
     42 H1'         1.7718    1.9211    1.6015 H         1 ACP        -0.0393
     43 H8         -1.1244    1.3534   -1.1987 H         1 ACP         0.0000
     44 HN61       -2.5259    5.6573   -1.4336 H         1 ACP         0.2048
     45 HN62       -2.1416    7.2600   -0.8539 H         1 ACP         0.2048
     46 H2          1.6509    6.5764    1.8088 H         1 ACP        -0.1292
     47 H47        -0.2190    7.4917    0.6033 H         1 ACP         0.2048
@<TRIPOS>BOND
     1    1    2 2
     2    1    3 1
     3    1    4 1
     4    1    8 1
     5    4   32 1
     6    5    6 2
     7    5    7 1
     8    5    8 1
     9    5   12 1
    10    8   33 1
    11    8   34 1
    12    9   10 2
    13    9   11 1
    14    9   12 1
    15    9   13 1
    16   13   14 1
    17   14   15 1
    18   14   35 1
    19   14   36 1
    20   15   16 1
    21   15   17 1
    22   15   37 1
    23   16   21 1
    24   17   18 1
    25   17   19 1
    26   17   38 1
    27   18   39 1
    28   19   20 1
    29   19   21 1
    30   19   40 1
    31   20   41 1
    32   21   22 1
    33   21   42 1
    34   22   23 ar
    35   22   31 ar
    36   23   24 ar
    37   23   43 1
    38   24   25 ar
    39   25   26 ar
    40   25   31 ar
    41   26   27 1
    42   26   28 ar
    43   27   44 1
    44   27   45 1
    45   28   29 ar
    46   28   47 1
    47   29   30 ar
    48   29   46 1
    49   30   31 ar
@<TRIPOS>SUBSTRUCTURE
     1 ACP         1 GROUP 0 A     ****
@<TRIPOS>MOLECULE
[[5-(6-amino-1,8-dihydropurine-6,8-diylium-7-id-9-yl)-3,4-dihydroxy-tetrahydrofuran-2-yl]methoxy-oxido-phosphoryl]oxy-[[hydroxy(oxido)phosphoryl]methyl]phosphinate
   47    49     1     0     0
SMALL
USER_CHARGES

@<TRIPOS>ATOM
      1 PG          5.8813   -3.2509    0.3308 P.3       1 ACP        -1.2804
      2 O1G         5.5016   -4.0244    1.5718 O.co2     1 ACP         0.3195
      3 O2G         5.6282   -1.7666    0.2003 O.co2     1 ACP         0.3195
      4 O3G         7.4343   -3.5695   -0.0522 O.3       1 ACP         0.0326
      5 PB          5.2532   -3.4822   -2.8515 P.3       1 ACP        -1.2804
      6 O1B         4.4523   -4.4134   -3.7313 O.co2     1 ACP         0.3195
      7 O2B         6.7224   -3.2178   -3.0876 O.co2     1 ACP         0.3195
      8 C3B         5.0750   -4.0770   -1.1112 C.3       1 ACP         0.8942
      9 PA          3.9989   -0.9668   -3.8036 P.3       1 ACP        -1.1062
     10 O1A         2.9278   -1.5919   -4.6707 O.co2     1 ACP         0.3195
     11 O2A         5.2378   -0.3600   -4.4260 O.co2     1 ACP         0.3195
     12 O3A         4.4650   -2.0644   -2.6878 O.3       1 ACP         0.4672
     13 O5'         3.2883    0.1336   -2.8242 O.3       1 ACP         0.1618
     14 C5'         2.2816   -0.2918   -1.9206 C.3       1 ACP         0.1504
     15 C4'         2.7248    0.0226   -0.4980 C.3       1 ACP         0.1111
     16 O4'         2.4697    1.4219   -0.2462 O.3       1 ACP        -0.1436
     17 C3'         1.9404   -0.7419    0.5596 C.3       1 ACP         0.1111
     18 O3'         2.7418   -0.8086    1.7389 O.3       1 ACP        -0.2728
     19 C2'         0.7477    0.1630    0.7858 C.3       1 ACP         0.1111
     20 O2'         0.1373   -0.0577    2.0407 O.3       1 ACP        -0.2728
     21 C1'         1.3733    1.5427    0.6747 C.3       1 ACP         0.2693
     22 N9          0.4520    2.5240    0.1767 N.pl3     1 ACP        -0.3222
     23 C8          0.5793    3.3338   -1.1209 C.ar      1 ACP         0.1640
     24 N7         -0.4807    4.1508   -1.2458 N.2       1 ACP        -0.1640
     25 C5         -1.1921    3.8572   -0.1126 C.ar      1 ACP         0.0820
     26 C6         -2.4855    4.5203    0.2163 C.ar      1 ACP         0.1640
     27 N6         -2.9873    5.4319   -0.6020 N.pl3     1 ACP        -0.4916
     28 N1         -3.0414    4.1119    1.3596 N.pl3     1 ACP        -0.4390
     29 C2         -2.4169    3.1071    2.1904 C.ar      1 ACP         0.5691
     30 N3         -1.2928    2.5191    1.9210 N.ar      1 ACP        -0.4283
     31 C4         -0.7202    2.9326    0.7534 C.ar      1 ACP         0.2226
     32 HOG3        8.1316   -3.3522    0.6025 H         1 ACP         0.2010
     33 H3B1        4.0011   -4.0858   -0.8941 H         1 ACP        -0.0393
     34 H3B2        5.4182   -5.1175   -1.1082 H         1 ACP        -0.0393
     35 H5'1        1.3500    0.2325   -2.1560 H         1 ACP        -0.0393
     36 H5'2        2.1267   -1.3683   -2.0444 H         1 ACP        -0.0393
     37 H4'         3.8046   -0.1390   -0.4011 H         1 ACP        -0.0393
     38 H3'         1.6787   -1.7627    0.2719 H         1 ACP        -0.0393
     39 HO3'        3.5553   -1.2733    1.4913 H         1 ACP         0.2010
     40 H2'         0.0002   -0.0084   -0.0014 H         1 ACP        -0.0393
     41 HO2'        0.8091    0.1203    2.7213 H         1 ACP         0.2010
     42 H1'         1.7718    1.9211    1.6015 H         1 ACP        -0.0393
     43 H8          1.3565    3.3309   -1.8916 H         1 ACP         0.0000
     44 HN61       -2.4952    5.6785   -1.4487 H         1 ACP         0.2048
     45 HN62       -3.8637    5.8828   -0.3819 H         1 ACP         0.2048
     46 H2         -2.9911    2.8734    3.1000 H         1 ACP        -0.1292
     47 H47        -3.9253    4.5332    1.6302 H         1 ACP         0.2048
@<TRIPOS>BOND
     1    1    2 2
     2    1    3 1
     3    1    4 1
     4    1    8 1
     5    4   32 1
     6    5    6 2
     7    5    7 1
     8    5    8 1
     9    5   12 1
    10    8   33 1
    11    8   34 1
    12    9   10 2
    13    9   11 1
    14    9   12 1
    15    9   13 1
    16   13   14 1
    17   14   15 1
    18   14   35 1
    19   14   36 1
    20   15   16 1
    21   15   17 1
    22   15   37 1
    23   16   21 1
    24   17   18 1
    25   17   19 1
    26   17   38 1
    27   18   39 1
    28   19   20 1
    29   19   21 1
    30   19   40 1
    31   20   41 1
    32   21   22 1
    33   21   42 1
    34   22   23 ar
    35   22   31 ar
    36   23   24 ar
    37   23   43 1
    38   24   25 ar
    39   25   26 ar
    40   25   31 ar
    41   26   27 1
    42   26   28 ar
    43   27   44 1
    44   27   45 1
    45   28   29 ar
    46   28   47 1
    47   29   30 ar
    48   29   46 1
    49   30   31 ar
@<TRIPOS>SUBSTRUCTURE
     1 ACP         1 GROUP 0 A     ****
@<TRIPOS>MOLECULE
[[5-(6-amino-1,8-dihydropurine-6,8-diylium-7-id-9-yl)-3,4-dihydroxy-tetrahydrofuran-2-yl]methoxy-oxido-phosphoryl]oxy-[[hydroxy(oxido)phosphoryl]methyl]phosphinate
   47    49     1     0     0
SMALL
USER_CHARGES

@<TRIPOS>ATOM
      1 PG          2.1194   -2.1363   -7.4176 P.3       1 ACP        -1.2804
      2 O1G         1.3735   -1.3877   -8.4974 O.co2     1 ACP         0.3195
      3 O2G         1.4435   -2.6000   -6.1478 O.co2     1 ACP         0.3195
      4 O3G         2.9300   -3.3845   -8.0847 O.3       1 ACP         0.0326
      5 PB          4.7841   -1.6168   -5.6274 P.3       1 ACP        -1.2804
      6 O1B         5.8152   -0.5181   -5.5158 O.co2     1 ACP         0.3195
      7 O2B         5.1653   -3.0521   -5.9083 O.co2     1 ACP         0.3195
      8 C3B         3.5718   -1.1066   -6.9251 C.3       1 ACP         0.8942
      9 PA          3.9654   -2.1111   -2.8181 P.3       1 ACP        -1.1062
     10 O1A         5.0498   -1.2970   -2.1465 O.co2     1 ACP         0.3195
     11 O2A         4.0486   -3.6217   -2.8585 O.co2     1 ACP         0.3195
     12 O3A         3.7791   -1.5622   -4.3449 O.3       1 ACP         0.4672
     13 O5'         2.5237   -1.6631   -2.1889 O.3       1 ACP         0.1618
     14 C5'         2.2816   -0.2918   -1.9206 C.3       1 ACP         0.1504
     15 C4'         2.7248    0.0226   -0.4980 C.3       1 ACP         0.1111
     16 O4'         2.4697    1.4219   -0.2462 O.3       1 ACP        -0.1436
     17 C3'         1.9404   -0.7419    0.5596 C.3       1 ACP         0.1111
     18 O3'         2.7418   -0.8086    1.7389 O.3       1 ACP        -0.2728
     19 C2'         0.7477    0.1630    0.7858 C.3       1 ACP         0.1111
     20 O2'         0.1373   -0.0577    2.0407 O.3       1 ACP        -0.2728
     21 C1'         1.3733    1.5427    0.6747 C.3       1 ACP         0.2693
     22 N9          0.4520    2.5240    0.1767 N.pl3     1 ACP        -0.3222
     23 C8          0.1798    2.8712   -1.2933 C.ar      1 ACP         0.1640
     24 N7         -0.7494    3.8400   -1.3610 N.2       1 ACP        -0.1640
     25 C5         -1.0173    4.0603   -0.0358 C.ar      1 ACP         0.0820
     26 C6         -2.0105    5.0717    0.4241 C.ar      1 ACP         0.1640
     27 N6         -2.6723    5.7982   -0.4628 N.pl3     1 ACP        -0.4916
     28 N1         -2.1445    5.1522    1.7502 N.pl3     1 ACP        -0.4390
     29 C2         -1.3755    4.3143    2.6426 C.ar      1 ACP         0.5691
     30 N3         -0.5075    3.4292    2.2616 N.ar      1 ACP        -0.4283
     31 C4         -0.3667    3.3425    0.9070 C.ar      1 ACP         0.2226
     32 HOG3        2.4189   -4.0733   -8.5606 H         1 ACP         0.2010
     33 H3B1        3.1646   -0.1403   -6.6075 H         1 ACP        -0.0393
     34 H3B2        4.1555   -0.9325   -7.8359 H         1 ACP        -0.0393
     35 H5'1        2.8429    0.3140   -2.6391 H         1 ACP        -0.0393
     36 H5'2        1.2125   -0.0906   -2.0420 H         1 ACP        -0.0393
     37 H4'         3.8046   -0.1390   -0.4011 H         1 ACP        -0.0393
     38 H3'         1.6787   -1.7627    0.2719 H         1 ACP        -0.0393
     39 HO3'        3.5553   -1.2733    1.4913 H         1 ACP         0.2010
     40 H2'         0.0002   -0.0084   -0.0014 H         1 ACP        -0.0393
     41 HO2'       -0.6132    0.5577    2.1063 H         1 ACP         0.2010
     42 H1'         1.7718    1.9211    1.6015 H         1 ACP        -0.0393
     43 H8          0.6089    2.4651   -2.2147 H         1 ACP         0.0000
     44 HN61       -2.5055    5.6680   -1.4503 H         1 ACP         0.2048
     45 HN62       -3.3462    6.4841   -0.1542 H         1 ACP         0.2048
     46 H2         -1.5932    4.4937    3.7066 H         1 ACP        -0.1292
     47 H47        -2.8098    5.8270    2.1160 H         1 ACP         0.2048
@<TRIPOS>BOND
     1    1    2 2
     2    1    3 1
     3    1    4 1
     4    1    8 1
     5    4   32 1
     6    5    6 2
     7    5    7 1
     8    5    8 1
     9    5   12 1
    10    8   33 1
    11    8   34 1
    12    9   10 2
    13    9   11 1
    14    9   12 1
    15    9   13 1
    16   13   14 1
    17   14   15 1
    18   14   35 1
    19   14   36 1
    20   15   16 1
    21   15   17 1
    22   15   37 1
    23   16   21 1
    24   17   18 1
    25   17   19 1
    26   17   38 1
    27   18   39 1
    28   19   20 1
    29   19   21 1
    30   19   40 1
    31   20   41 1
    32   21   22 1
    33   21   42 1
    34   22   23 ar
    35   22   31 ar
    36   23   24 ar
    37   23   43 1
    38   24   25 ar
    39   25   26 ar
    40   25   31 ar
    41   26   27 1
    42   26   28 ar
    43   27   44 1
    44   27   45 1
    45   28   29 ar
    46   28   47 1
    47   29   30 ar
    48   29   46 1
    49   30   31 ar
@<TRIPOS>SUBSTRUCTURE
     1 ACP         1 GROUP 0 A     ****
@<TRIPOS>MOLECULE
[[5-(6-amino-1,8-dihydropurine-6,8-diylium-7-id-9-yl)-3,4-dihydroxy-tetrahydrofuran-2-yl]methoxy-oxido-phosphoryl]oxy-[[hydroxy(oxido)phosphoryl]methyl]phosphinate
   47    49     1     0     0
SMALL
USER_CHARGES

@<TRIPOS>ATOM
      1 PG         -5.9261   -4.7919    0.9605 P.3       1 ACP        -1.2804
      2 O1G        -6.3587   -6.1482    0.4544 O.co2     1 ACP         0.3195
      3 O2G        -4.6952   -4.0922    0.4319 O.co2     1 ACP         0.3195
      4 O3G        -7.1931   -3.7661    0.9121 O.3       1 ACP         0.0326
      5 PB         -4.5772   -6.0728    3.6279 P.3       1 ACP        -1.2804
      6 O1B        -4.9639   -7.4745    3.2178 O.co2     1 ACP         0.3195
      7 O2B        -4.4851   -5.6554    5.0776 O.co2     1 ACP         0.3195
      8 C3B        -5.7479   -4.9108    2.7953 C.3       1 ACP         0.8942
      9 PA         -1.7212   -6.2756    2.8475 P.3       1 ACP        -1.1062
     10 O1A        -1.7898   -7.6341    2.1847 O.co2     1 ACP         0.3195
     11 O2A        -1.1337   -6.1229    4.2339 O.co2     1 ACP         0.3195
     12 O3A        -3.2188   -5.6244    2.8457 O.3       1 ACP         0.4672
     13 O5'        -0.9728   -5.2427    1.8237 O.3       1 ACP         0.1618
     14 C5'        -0.7840   -3.8935    2.2172 C.3       1 ACP         0.1504
     15 C4'        -0.0724   -3.1466    1.1027 C.3       1 ACP         0.1111
     16 O4'        -0.8674   -3.1929   -0.0945 O.3       1 ACP        -0.1436
     17 C3'         0.1338   -1.6715    1.4027 C.3       1 ACP         0.1111
     18 O3'         1.2893   -1.4445    2.1808 O.3       1 ACP        -0.2728
     19 C2'         0.2158   -1.0724    0.0128 C.3       1 ACP         0.1111
     20 O2'         1.5141   -1.2448   -0.5513 O.3       1 ACP        -0.2728
     21 C1'        -0.7897   -1.9176   -0.7583 C.3       1 ACP         0.2693
     22 N9         -2.1040   -1.3333   -0.7704 N.pl3     1 ACP        -0.3222
     23 C8         -2.9659   -0.9765    0.4483 C.ar      1 ACP         0.1640
     24 N7         -4.1307   -0.4482    0.0350 N.2       1 ACP        -0.1640
     25 C5         -3.9835   -0.4834   -1.3265 C.ar      1 ACP         0.0820
     26 C6         -5.0367    0.0074   -2.2596 C.ar      1 ACP         0.1640
     27 N6         -6.1673    0.5005   -1.7791 N.pl3     1 ACP        -0.4916
     28 N1         -4.7242   -0.1024   -3.5532 N.pl3     1 ACP        -0.4390
     29 C2         -3.4603   -0.6562   -3.9841 C.ar      1 ACP         0.5691
     30 N3         -2.5322   -1.0878   -3.1877 N.ar      1 ACP        -0.4283
     31 C4         -2.8461   -0.9779   -1.8643 C.ar      1 ACP         0.2226
     32 HOG3       -7.6174   -3.5874    0.0459 H         1 ACP         0.2010
     33 H3B1       -6.7460   -5.1447    3.1823 H         1 ACP        -0.0393
     34 H3B2       -5.4858   -3.9079    3.1501 H         1 ACP        -0.0393
     35 H5'1       -1.7614   -3.4427    2.4167 H         1 ACP        -0.0393
     36 H5'2       -0.1870   -3.8723    3.1344 H         1 ACP        -0.0393
     37 H4'         0.8883   -3.6447    0.8783 H         1 ACP        -0.0393
     38 H3'        -0.7368   -1.2359    1.9871 H         1 ACP        -0.0393
     39 HO3'        1.3407   -0.4871    2.3218 H         1 ACP         0.2010
     40 H2'        -0.0343   -0.0280    0.0196 H         1 ACP        -0.0393
     41 HO2'        2.1443   -0.7955    0.0378 H         1 ACP         0.2010
     42 H1'        -0.5175   -2.1046   -1.7826 H         1 ACP        -0.0393
     43 H8         -2.7697   -1.0875    1.5194 H         1 ACP         0.0000
     44 HN61       -6.3171    0.5450   -0.7814 H         1 ACP         0.2048
     45 HN62       -6.8827    0.8341   -2.4090 H         1 ACP         0.2048
     46 H2         -3.3452   -0.6828   -5.0785 H         1 ACP        -0.1292
     47 H47        -5.4089    0.2183   -4.2317 H         1 ACP         0.2048
@<TRIPOS>BOND
     1    1    2 2
     2    1    3 1
     3    1    4 1
     4    1    8 1
     5    4   32 1
     6    5    6 2
     7    5    7 1
     8    5    8 1
     9    5   12 1
    10    8   33 1
    11    8   34 1
    12    9   10 2
    13    9   11 1
    14    9   12 1
    15    9   13 1
    16   13   14 1
    17   14   15 1
    18   14   35 1
    19   14   36 1
    20   15   16 1
    21   15   17 1
    22   15   37 1
    23   16   21 1
    24   17   18 1
    25   17   19 1
    26   17   38 1
    27   18   39 1
    28   19   20 1
    29   19   21 1
    30   19   40 1
    31   20   41 1
    32   21   22 1
    33   21   42 1
    34   22   23 ar
    35   22   31 ar
    36   23   24 ar
    37   23   43 1
    38   24   25 ar
    39   25   26 ar
    40   25   31 ar
    41   26   27 1
    42   26   28 ar
    43   27   44 1
    44   27   45 1
    45   28   29 ar
    46   28   47 1
    47   29   30 ar
    48   29   46 1
    49   30   31 ar
@<TRIPOS>SUBSTRUCTURE
     1 ACP         1 GROUP 0 A     ****
@<TRIPOS>MOLECULE
[[5-(6-amino-1,8-dihydropurine-6,8-diylium-7-id-9-yl)-3,4-dihydroxy-tetrahydrofuran-2-yl]methoxy-oxido-phosphoryl]oxy-[[hydroxy(oxido)phosphoryl]methyl]phosphinate
   47    49     1     0     0
SMALL
USER_CHARGES

@<TRIPOS>ATOM
      1 PG          6.5119   -0.8606   -5.1777 P.3       1 ACP        -1.2804
      2 O1G         7.5555    0.1902   -5.4770 O.co2     1 ACP         0.3195
      3 O2G         6.7970   -2.3384   -5.3156 O.co2     1 ACP         0.3195
      4 O3G         5.8564   -0.5715   -3.7126 O.3       1 ACP         0.0326
      5 PB          3.4884   -1.5062   -6.1864 P.3       1 ACP        -1.2804
      6 O1B         3.8678   -2.9076   -6.6045 O.co2     1 ACP         0.3195
      7 O2B         2.4145   -0.7171   -6.8993 O.co2     1 ACP         0.3195
      8 C3B         5.0287   -0.4859   -6.2132 C.3       1 ACP         0.8942
      9 PA          2.1362   -2.2698   -3.6575 P.3       1 ACP        -1.1062
     10 O1A         2.4953   -3.7397   -3.6734 O.co2     1 ACP         0.3195
     11 O2A         0.7453   -1.8118   -4.0395 O.co2     1 ACP         0.3195
     12 O3A         3.2175   -1.4646   -4.5792 O.3       1 ACP         0.4672
     13 O5'         2.5237   -1.6631   -2.1889 O.3       1 ACP         0.1618
     14 C5'         2.2816   -0.2918   -1.9206 C.3       1 ACP         0.1504
     15 C4'         2.7248    0.0226   -0.4980 C.3       1 ACP         0.1111
     16 O4'         2.4697    1.4219   -0.2462 O.3       1 ACP        -0.1436
     17 C3'         1.9404   -0.7419    0.5596 C.3       1 ACP         0.1111
     18 O3'         2.7418   -0.8086    1.7389 O.3       1 ACP        -0.2728
     19 C2'         0.7477    0.1630    0.7858 C.3       1 ACP         0.1111
     20 O2'         0.1373   -0.0577    2.0407 O.3       1 ACP        -0.2728
     21 C1'         1.3733    1.5427    0.6747 C.3       1 ACP         0.2693
     22 N9          0.4520    2.5240    0.1767 N.pl3     1 ACP        -0.3222
     23 C8         -1.0660    2.5608    0.3999 C.ar      1 ACP         0.1640
     24 N7         -1.5852    3.6333   -0.2221 N.2       1 ACP        -0.1640
     25 C5         -0.4682    4.1996   -0.7771 C.ar      1 ACP         0.0820
     26 C6         -0.5216    5.4476   -1.5899 C.ar      1 ACP         0.1640
     27 N6         -1.6813    6.0510   -1.7982 N.pl3     1 ACP        -0.4916
     28 N1          0.6621    5.8575   -2.0523 N.pl3     1 ACP        -0.4390
     29 C2          1.8795    5.1301   -1.7717 C.ar      1 ACP         0.5691
     30 N3          1.9458    4.0434   -1.0670 N.ar      1 ACP        -0.4283
     31 C4          0.7388    3.6199   -0.5917 C.ar      1 ACP         0.2226
     32 HOG3        6.4455   -0.5720   -2.9283 H         1 ACP         0.2010
     33 H3B1        5.3781   -0.4776   -7.2516 H         1 ACP        -0.0393
     34 H3B2        4.7219    0.5356   -5.9627 H         1 ACP        -0.0393
     35 H5'1        2.8429    0.3140   -2.6391 H         1 ACP        -0.0393
     36 H5'2        1.2125   -0.0906   -2.0420 H         1 ACP        -0.0393
     37 H4'         3.8046   -0.1390   -0.4011 H         1 ACP        -0.0393
     38 H3'         1.6787   -1.7627    0.2719 H         1 ACP        -0.0393
     39 HO3'        2.2231   -1.2979    2.3952 H         1 ACP         0.2010
     40 H2'         0.0002   -0.0084   -0.0014 H         1 ACP        -0.0393
     41 HO2'       -0.1554   -0.9852    2.0577 H         1 ACP         0.2010
     42 H1'         1.7718    1.9211    1.6015 H         1 ACP        -0.0393
     43 H8         -1.7235    1.8833    0.9537 H         1 ACP         0.0000
     44 HN61       -2.5296    5.6672   -1.4072 H         1 ACP         0.2048
     45 HN62       -1.7205    6.8969   -2.3483 H         1 ACP         0.2048
     46 H2          2.7750    5.5878   -2.2190 H         1 ACP        -0.1292
     47 H47         0.6808    6.7046   -2.6128 H         1 ACP         0.2048
@<TRIPOS>BOND
     1    1    2 2
     2    1    3 1
     3    1    4 1
     4    1    8 1
     5    4   32 1
     6    5    6 2
     7    5    7 1
     8    5    8 1
     9    5   12 1
    10    8   33 1
    11    8   34 1
    12    9   10 2
    13    9   11 1
    14    9   12 1
    15    9   13 1
    16   13   14 1
    17   14   15 1
    18   14   35 1
    19   14   36 1
    20   15   16 1
    21   15   17 1
    22   15   37 1
    23   16   21 1
    24   17   18 1
    25   17   19 1
    26   17   38 1
    27   18   39 1
    28   19   20 1
    29   19   21 1
    30   19   40 1
    31   20   41 1
    32   21   22 1
    33   21   42 1
    34   22   23 ar
    35   22   31 ar
    36   23   24 ar
    37   23   43 1
    38   24   25 ar
    39   25   26 ar
    40   25   31 ar
    41   26   27 1
    42   26   28 ar
    43   27   44 1
    44   27   45 1
    45   28   29 ar
    46   28   47 1
    47   29   30 ar
    48   29   46 1
    49   30   31 ar
@<TRIPOS>SUBSTRUCTURE
     1 ACP         1 GROUP 0 A     ****
@<TRIPOS>MOLECULE
[[5-(6-amino-1,8-dihydropurine-6,8-diylium-7-id-9-yl)-3,4-dihydroxy-tetrahydrofuran-2-yl]methoxy-oxido-phosphoryl]oxy-[[hydroxy(oxido)phosphoryl]methyl]phosphinate
   47    49     1     0     0
SMALL
USER_CHARGES

@<TRIPOS>ATOM
      1 PG          3.2422   -4.7065    4.5492 P.3       1 ACP        -1.2804
      2 O1G         2.7654   -4.3629    5.9412 O.co2     1 ACP         0.3195
      3 O2G         2.6877   -4.0257    3.3191 O.co2     1 ACP         0.3195
      4 O3G         4.8718   -4.6550    4.5066 O.3       1 ACP         0.0326
      5 PB          1.3890   -7.3762    4.4324 P.3       1 ACP        -1.2804
      6 O1B         0.8481   -7.1287    5.8212 O.co2     1 ACP         0.3195
      7 O2B         1.5665   -8.7697    3.8748 O.co2     1 ACP         0.3195
      8 C3B         3.0257   -6.5263    4.3177 C.3       1 ACP         0.8942
      9 PA         -1.0048   -6.4109    2.9679 P.3       1 ACP        -1.1062
     10 O1A        -1.7723   -5.8853    4.1614 O.co2     1 ACP         0.3195
     11 O2A        -1.3819   -7.7301    2.3290 O.co2     1 ACP         0.3195
     12 O3A         0.5812   -6.4578    3.3543 O.3       1 ACP         0.4672
     13 O5'        -0.9728   -5.2427    1.8237 O.3       1 ACP         0.1618
     14 C5'        -0.7840   -3.8935    2.2172 C.3       1 ACP         0.1504
     15 C4'        -0.0724   -3.1466    1.1027 C.3       1 ACP         0.1111
     16 O4'        -0.8674   -3.1929   -0.0945 O.3       1 ACP        -0.1436
     17 C3'         0.1338   -1.6715    1.4027 C.3       1 ACP         0.1111
     18 O3'         1.2893   -1.4445    2.1808 O.3       1 ACP        -0.2728
     19 C2'         0.2158   -1.0724    0.0128 C.3       1 ACP         0.1111
     20 O2'         1.5141   -1.2448   -0.5513 O.3       1 ACP        -0.2728
     21 C1'        -0.7897   -1.9176   -0.7583 C.3       1 ACP         0.2693
     22 N9         -2.1040   -1.3333   -0.7704 N.pl3     1 ACP        -0.3222
     23 C8         -3.2124   -1.5345    0.2719 C.ar      1 ACP         0.1640
     24 N7         -4.2964   -0.8234   -0.0828 N.2       1 ACP        -0.1640
     25 C5         -3.8754   -0.2386   -1.2478 C.ar      1 ACP         0.0820
     26 C6         -4.7432    0.6719   -2.0470 C.ar      1 ACP         0.1640
     27 N6         -5.9725    0.9415   -1.6366 N.pl3     1 ACP        -0.4916
     28 N1         -4.1703    1.1517   -3.1536 N.pl3     1 ACP        -0.4390
     29 C2         -2.8174    0.7994   -3.5215 C.ar      1 ACP         0.5691
     30 N3         -2.0475    0.0097   -2.8393 N.ar      1 ACP        -0.4283
     31 C4         -2.6278   -0.4836   -1.7071 C.ar      1 ACP         0.2226
     32 HOG3        5.3189   -3.8094    4.7237 H         1 ACP         0.2010
     33 H3B1        3.6774   -7.0056    5.0565 H         1 ACP        -0.0393
     34 H3B2        3.4242   -6.7653    3.3255 H         1 ACP        -0.0393
     35 H5'1       -1.7614   -3.4427    2.4167 H         1 ACP        -0.0393
     36 H5'2       -0.1870   -3.8723    3.1344 H         1 ACP        -0.0393
     37 H4'         0.8883   -3.6447    0.8783 H         1 ACP        -0.0393
     38 H3'        -0.7368   -1.2359    1.9871 H         1 ACP        -0.0393
     39 HO3'        1.3407   -0.4871    2.3218 H         1 ACP         0.2010
     40 H2'        -0.0343   -0.0280    0.0196 H         1 ACP        -0.0393
     41 HO2'        2.1443   -0.7955    0.0378 H         1 ACP         0.2010
     42 H1'        -0.5175   -2.1046   -1.7826 H         1 ACP        -0.0393
     43 H8         -3.2310   -2.1319    1.1889 H         1 ACP         0.0000
     44 HN61       -6.3230    0.5316   -0.7829 H         1 ACP         0.2048
     45 HN62       -6.5628    1.5584   -2.1760 H         1 ACP         0.2048
     46 H2         -2.4822    1.2710   -4.4579 H         1 ACP        -0.1292
     47 H47        -4.7200    1.7780   -3.7346 H         1 ACP         0.2048
@<TRIPOS>BOND
     1    1    2 2
     2    1    3 1
     3    1    4 1
     4    1    8 1
     5    4   32 1
     6    5    6 2
     7    5    7 1
     8    5    8 1
     9    5   12 1
    10    8   33 1
    11    8   34 1
    12    9   10 2
    13    9   11 1
    14    9   12 1
    15    9   13 1
    16   13   14 1
    17   14   15 1
    18   14   35 1
    19   14   36 1
    20   15   16 1
    21   15   17 1
    22   15   37 1
    23   16   21 1
    24   17   18 1
    25   17   19 1
    26   17   38 1
    27   18   39 1
    28   19   20 1
    29   19   21 1
    30   19   40 1
    31   20   41 1
    32   21   22 1
    33   21   42 1
    34   22   23 ar
    35   22   31 ar
    36   23   24 ar
    37   23   43 1
    38   24   25 ar
    39   25   26 ar
    40   25   31 ar
    41   26   27 1
    42   26   28 ar
    43   27   44 1
    44   27   45 1
    45   28   29 ar
    46   28   47 1
    47   29   30 ar
    48   29   46 1
    49   30   31 ar
@<TRIPOS>SUBSTRUCTURE
     1 ACP         1 GROUP 0 A     ****
@<TRIPOS>MOLECULE
[[5-(6-amino-1,8-dihydropurine-6,8-diylium-7-id-9-yl)-3,4-dihydroxy-tetrahydrofuran-2-yl]methoxy-oxido-phosphoryl]oxy-[[hydroxy(oxido)phosphoryl]methyl]phosphinate
   47    49     1     0     0
SMALL
USER_CHARGES

@<TRIPOS>ATOM
      1 PG          1.5373   -8.6453    3.1437 P.3       1 ACP        -1.2804
      2 O1G         1.6842   -9.7754    2.1516 O.co2     1 ACP         0.3195
      3 O2G         2.4684   -8.4857    4.3234 O.co2     1 ACP         0.3195
      4 O3G         1.4352   -7.2294    2.3408 O.3       1 ACP         0.0326
      5 PB         -0.8335   -7.5076    5.0568 P.3       1 ACP        -1.2804
      6 O1B         0.0251   -7.6392    6.2929 O.co2     1 ACP         0.3195
      7 O2B        -2.3355   -7.6711    5.0995 O.co2     1 ACP         0.3195
      8 C3B        -0.1864   -8.7029    3.8052 C.3       1 ACP         0.8942
      9 PA         -0.5272   -4.5716    4.7518 P.3       1 ACP        -1.1062
     10 O1A         0.5026   -4.3627    5.8407 O.co2     1 ACP         0.3195
     11 O2A        -1.9772   -4.2040    4.9812 O.co2     1 ACP         0.3195
     12 O3A        -0.4587   -6.1302    4.2691 O.3       1 ACP         0.4672
     13 O5'         0.0099   -3.8403    3.3910 O.3       1 ACP         0.1618
     14 C5'        -0.7840   -3.8935    2.2172 C.3       1 ACP         0.1504
     15 C4'        -0.0724   -3.1466    1.1027 C.3       1 ACP         0.1111
     16 O4'        -0.8674   -3.1929   -0.0945 O.3       1 ACP        -0.1436
     17 C3'         0.1338   -1.6715    1.4027 C.3       1 ACP         0.1111
     18 O3'         1.2893   -1.4445    2.1808 O.3       1 ACP        -0.2728
     19 C2'         0.2158   -1.0724    0.0128 C.3       1 ACP         0.1111
     20 O2'         1.5141   -1.2448   -0.5513 O.3       1 ACP        -0.2728
     21 C1'        -0.7897   -1.9176   -0.7583 C.3       1 ACP         0.2693
     22 N9         -2.1040   -1.3333   -0.7704 N.pl3     1 ACP        -0.3222
     23 C8         -3.2124   -1.5345    0.2719 C.ar      1 ACP         0.1640
     24 N7         -4.2964   -0.8234   -0.0828 N.2       1 ACP        -0.1640
     25 C5         -3.8754   -0.2386   -1.2478 C.ar      1 ACP         0.0820
     26 C6         -4.7432    0.6719   -2.0470 C.ar      1 ACP         0.1640
     27 N6         -5.9725    0.9415   -1.6366 N.pl3     1 ACP        -0.4916
     28 N1         -4.1703    1.1517   -3.1536 N.pl3     1 ACP        -0.4390
     29 C2         -2.8174    0.7994   -3.5215 C.ar      1 ACP         0.5691
     30 N3         -2.0475    0.0097   -2.8393 N.ar      1 ACP        -0.4283
     31 C4         -2.6278   -0.4836   -1.7071 C.ar      1 ACP         0.2226
     32 HOG3        2.1836   -6.9629    1.7654 H         1 ACP         0.2010
     33 H3B1       -0.3128   -9.7026    4.2355 H         1 ACP        -0.0393
     34 H3B2       -0.8561   -8.6315    2.9409 H         1 ACP        -0.0393
     35 H5'1       -0.9358   -4.9414    1.9395 H         1 ACP        -0.0393
     36 H5'2       -1.7558   -3.4349    2.4258 H         1 ACP        -0.0393
     37 H4'         0.8883   -3.6447    0.8783 H         1 ACP        -0.0393
     38 H3'        -0.7368   -1.2359    1.9871 H         1 ACP        -0.0393
     39 HO3'        1.1625   -1.9325    3.0084 H         1 ACP         0.2010
     40 H2'        -0.0343   -0.0280    0.0196 H         1 ACP        -0.0393
     41 HO2'        2.1443   -0.7955    0.0378 H         1 ACP         0.2010
     42 H1'        -0.5175   -2.1046   -1.7826 H         1 ACP        -0.0393
     43 H8         -3.2310   -2.1319    1.1889 H         1 ACP         0.0000
     44 HN61       -6.3230    0.5316   -0.7829 H         1 ACP         0.2048
     45 HN62       -6.5628    1.5584   -2.1760 H         1 ACP         0.2048
     46 H2         -2.4822    1.2710   -4.4579 H         1 ACP        -0.1292
     47 H47        -4.7200    1.7780   -3.7346 H         1 ACP         0.2048
@<TRIPOS>BOND
     1    1    2 2
     2    1    3 1
     3    1    4 1
     4    1    8 1
     5    4   32 1
     6    5    6 2
     7    5    7 1
     8    5    8 1
     9    5   12 1
    10    8   33 1
    11    8   34 1
    12    9   10 2
    13    9   11 1
    14    9   12 1
    15    9   13 1
    16   13   14 1
    17   14   15 1
    18   14   35 1
    19   14   36 1
    20   15   16 1
    21   15   17 1
    22   15   37 1
    23   16   21 1
    24   17   18 1
    25   17   19 1
    26   17   38 1
    27   18   39 1
    28   19   20 1
    29   19   21 1
    30   19   40 1
    31   20   41 1
    32   21   22 1
    33   21   42 1
    34   22   23 ar
    35   22   31 ar
    36   23   24 ar
    37   23   43 1
    38   24   25 ar
    39   25   26 ar
    40   25   31 ar
    41   26   27 1
    42   26   28 ar
    43   27   44 1
    44   27   45 1
    45   28   29 ar
    46   28   47 1
    47   29   30 ar
    48   29   46 1
    49   30   31 ar
@<TRIPOS>SUBSTRUCTURE
     1 ACP         1 GROUP 0 A     ****
@<TRIPOS>MOLECULE
[[5-(6-amino-1,8-dihydropurine-6,8-diylium-7-id-9-yl)-3,4-dihydroxy-tetrahydrofuran-2-yl]methoxy-oxido-phosphoryl]oxy-[[hydroxy(oxido)phosphoryl]methyl]phosphinate
   47    49     1     0     0
SMALL
USER_CHARGES

@<TRIPOS>ATOM
      1 PG         -1.4126   -0.7299   -4.8311 P.3       1 ACP        -1.2804
      2 O1G        -0.7824   -0.5766   -3.4665 O.co2     1 ACP         0.3195
      3 O2G        -2.9052   -0.8800   -5.0146 O.co2     1 ACP         0.3195
      4 O3G        -0.8630    0.4474   -5.8170 O.3       1 ACP         0.0326
      5 PB          1.2048   -2.2562   -6.0121 P.3       1 ACP        -1.2804
      6 O1B         1.5448   -1.0928   -6.9142 O.co2     1 ACP         0.3195
      7 O2B         1.5224   -3.6852   -6.3881 O.co2     1 ACP         0.3195
      8 C3B        -0.6070   -2.1708   -5.6600 C.3       1 ACP         0.8942
      9 PA          3.2513   -1.6790   -3.9419 P.3       1 ACP        -1.1062
     10 O1A         3.7285   -0.3538   -4.4949 O.co2     1 ACP         0.3195
     11 O2A         4.0740   -2.9350   -4.1321 O.co2     1 ACP         0.3195
     12 O3A         1.7430   -1.9588   -4.5021 O.3       1 ACP         0.4672
     13 O5'         2.9202   -1.4821   -2.3524 O.3       1 ACP         0.1618
     14 C5'         2.2816   -0.2918   -1.9206 C.3       1 ACP         0.1504
     15 C4'         2.7248    0.0226   -0.4980 C.3       1 ACP         0.1111
     16 O4'         2.4697    1.4219   -0.2462 O.3       1 ACP        -0.1436
     17 C3'         1.9404   -0.7419    0.5596 C.3       1 ACP         0.1111
     18 O3'         2.7418   -0.8086    1.7389 O.3       1 ACP        -0.2728
     19 C2'         0.7477    0.1630    0.7858 C.3       1 ACP         0.1111
     20 O2'         0.1373   -0.0577    2.0407 O.3       1 ACP        -0.2728
     21 C1'         1.3733    1.5427    0.6747 C.3       1 ACP         0.2693
     22 N9          0.4520    2.5240    0.1767 N.pl3     1 ACP        -0.3222
     23 C8          0.1798    2.8712   -1.2933 C.ar      1 ACP         0.1640
     24 N7         -0.7494    3.8400   -1.3610 N.2       1 ACP        -0.1640
     25 C5         -1.0173    4.0603   -0.0358 C.ar      1 ACP         0.0820
     26 C6         -2.0105    5.0717    0.4241 C.ar      1 ACP         0.1640
     27 N6         -2.6723    5.7982   -0.4628 N.pl3     1 ACP        -0.4916
     28 N1         -2.1445    5.1522    1.7502 N.pl3     1 ACP        -0.4390
     29 C2         -1.3755    4.3143    2.6426 C.ar      1 ACP         0.5691
     30 N3         -0.5075    3.4292    2.2616 N.ar      1 ACP        -0.4283
     31 C4         -0.3667    3.3425    0.9070 C.ar      1 ACP         0.2226
     32 HOG3       -1.0283    1.3815   -5.5674 H         1 ACP         0.2010
     33 H3B1       -1.1168   -2.2909   -6.6223 H         1 ACP        -0.0393
     34 H3B2       -0.8413   -3.0524   -5.0530 H         1 ACP        -0.0393
     35 H5'1        2.5581    0.5235   -2.5966 H         1 ACP        -0.0393
     36 H5'2        1.1974   -0.4370   -1.9607 H         1 ACP        -0.0393
     37 H4'         3.8046   -0.1390   -0.4011 H         1 ACP        -0.0393
     38 H3'         1.6787   -1.7627    0.2719 H         1 ACP        -0.0393
     39 HO3'        2.2231   -1.2979    2.3952 H         1 ACP         0.2010
     40 H2'         0.0002   -0.0084   -0.0014 H         1 ACP        -0.0393
     41 HO2'       -0.1554   -0.9852    2.0577 H         1 ACP         0.2010
     42 H1'         1.7718    1.9211    1.6015 H         1 ACP        -0.0393
     43 H8          0.6089    2.4651   -2.2147 H         1 ACP         0.0000
     44 HN61       -2.5055    5.6680   -1.4503 H         1 ACP         0.2048
     45 HN62       -3.3462    6.4841   -0.1542 H         1 ACP         0.2048
     46 H2         -1.5932    4.4937    3.7066 H         1 ACP        -0.1292
     47 H47        -2.8098    5.8270    2.1160 H         1 ACP         0.2048
@<TRIPOS>BOND
     1    1    2 2
     2    1    3 1
     3    1    4 1
     4    1    8 1
     5    4   32 1
     6    5    6 2
     7    5    7 1
     8    5    8 1
     9    5   12 1
    10    8   33 1
    11    8   34 1
    12    9   10 2
    13    9   11 1
    14    9   12 1
    15    9   13 1
    16   13   14 1
    17   14   15 1
    18   14   35 1
    19   14   36 1
    20   15   16 1
    21   15   17 1
    22   15   37 1
    23   16   21 1
    24   17   18 1
    25   17   19 1
    26   17   38 1
    27   18   39 1
    28   19   20 1
    29   19   21 1
    30   19   40 1
    31   20   41 1
    32   21   22 1
    33   21   42 1
    34   22   23 ar
    35   22   31 ar
    36   23   24 ar
    37   23   43 1
    38   24   25 ar
    39   25   26 ar
    40   25   31 ar
    41   26   27 1
    42   26   28 ar
    43   27   44 1
    44   27   45 1
    45   28   29 ar
    46   28   47 1
    47   29   30 ar
    48   29   46 1
    49   30   31 ar
@<TRIPOS>SUBSTRUCTURE
     1 ACP         1 GROUP 0 A     ****
@<TRIPOS>MOLECULE
[[5-(6-amino-1,8-dihydropurine-6,8-diylium-7-id-9-yl)-3,4-dihydroxy-tetrahydrofuran-2-yl]methoxy-oxido-phosphoryl]oxy-[[hydroxy(oxido)phosphoryl]methyl]phosphinate
   47    49     1     0     0
SMALL
USER_CHARGES

@<TRIPOS>ATOM
      1 PG          3.3020    2.4604   -5.4785 P.3       1 ACP        -1.2804
      2 O1G         3.3723    3.4966   -6.5759 O.co2     1 ACP         0.3195
      3 O2G         3.4517    2.8240   -4.0192 O.co2     1 ACP         0.3195
      4 O3G         1.9603    1.5541   -5.6744 O.3       1 ACP         0.0326
      5 PB          4.8419   -0.3188   -4.7857 P.3       1 ACP        -1.2804
      6 O1B         5.2480    0.1822   -3.4194 O.co2     1 ACP         0.3195
      7 O2B         5.6944   -1.2866   -5.5737 O.co2     1 ACP         0.3195
      8 C3B         4.5600    1.1613   -5.8553 C.3       1 ACP         0.8942
      9 PA          2.6179   -2.0499   -3.8561 P.3       1 ACP        -1.1062
     10 O1A         3.4201   -3.3175   -4.0548 O.co2     1 ACP         0.3195
     11 O2A         1.1258   -2.0342   -4.1089 O.co2     1 ACP         0.3195
     12 O3A         3.3049   -0.8608   -4.7399 O.3       1 ACP         0.4672
     13 O5'         2.9202   -1.4821   -2.3524 O.3       1 ACP         0.1618
     14 C5'         2.2816   -0.2918   -1.9206 C.3       1 ACP         0.1504
     15 C4'         2.7248    0.0226   -0.4980 C.3       1 ACP         0.1111
     16 O4'         2.4697    1.4219   -0.2462 O.3       1 ACP        -0.1436
     17 C3'         1.9404   -0.7419    0.5596 C.3       1 ACP         0.1111
     18 O3'         2.7418   -0.8086    1.7389 O.3       1 ACP        -0.2728
     19 C2'         0.7477    0.1630    0.7858 C.3       1 ACP         0.1111
     20 O2'         0.1373   -0.0577    2.0407 O.3       1 ACP        -0.2728
     21 C1'         1.3733    1.5427    0.6747 C.3       1 ACP         0.2693
     22 N9          0.4520    2.5240    0.1767 N.pl3     1 ACP        -0.3222
     23 C8         -1.0660    2.5608    0.3999 C.ar      1 ACP         0.1640
     24 N7         -1.5852    3.6333   -0.2221 N.2       1 ACP        -0.1640
     25 C5         -0.4682    4.1996   -0.7771 C.ar      1 ACP         0.0820
     26 C6         -0.5216    5.4476   -1.5899 C.ar      1 ACP         0.1640
     27 N6         -1.6813    6.0510   -1.7982 N.pl3     1 ACP        -0.4916
     28 N1          0.6621    5.8575   -2.0523 N.pl3     1 ACP        -0.4390
     29 C2          1.8795    5.1301   -1.7717 C.ar      1 ACP         0.5691
     30 N3          1.9458    4.0434   -1.0670 N.ar      1 ACP        -0.4283
     31 C4          0.7388    3.6199   -0.5917 C.ar      1 ACP         0.2226
     32 HOG3        1.0872    2.0006   -5.6545 H         1 ACP         0.2010
     33 H3B1        5.5216    1.6817   -5.9257 H         1 ACP        -0.0393
     34 H3B2        4.3227    0.7755   -6.8530 H         1 ACP        -0.0393
     35 H5'1        2.5581    0.5235   -2.5966 H         1 ACP        -0.0393
     36 H5'2        1.1974   -0.4370   -1.9607 H         1 ACP        -0.0393
     37 H4'         3.8046   -0.1390   -0.4011 H         1 ACP        -0.0393
     38 H3'         1.6787   -1.7627    0.2719 H         1 ACP        -0.0393
     39 HO3'        3.5553   -1.2733    1.4913 H         1 ACP         0.2010
     40 H2'         0.0002   -0.0084   -0.0014 H         1 ACP        -0.0393
     41 HO2'       -0.1554   -0.9852    2.0577 H         1 ACP         0.2010
     42 H1'         1.7718    1.9211    1.6015 H         1 ACP        -0.0393
     43 H8         -1.7235    1.8833    0.9537 H         1 ACP         0.0000
     44 HN61       -2.5296    5.6672   -1.4072 H         1 ACP         0.2048
     45 HN62       -1.7205    6.8969   -2.3483 H         1 ACP         0.2048
     46 H2          2.7750    5.5878   -2.2190 H         1 ACP        -0.1292
     47 H47         0.6808    6.7046   -2.6128 H         1 ACP         0.2048
@<TRIPOS>BOND
     1    1    2 2
     2    1    3 1
     3    1    4 1
     4    1    8 1
     5    4   32 1
     6    5    6 2
     7    5    7 1
     8    5    8 1
     9    5   12 1
    10    8   33 1
    11    8   34 1
    12    9   10 2
    13    9   11 1
    14    9   12 1
    15    9   13 1
    16   13   14 1
    17   14   15 1
    18   14   35 1
    19   14   36 1
    20   15   16 1
    21   15   17 1
    22   15   37 1
    23   16   21 1
    24   17   18 1
    25   17   19 1
    26   17   38 1
    27   18   39 1
    28   19   20 1
    29   19   21 1
    30   19   40 1
    31   20   41 1
    32   21   22 1
    33   21   42 1
    34   22   23 ar
    35   22   31 ar
    36   23   24 ar
    37   23   43 1
    38   24   25 ar
    39   25   26 ar
    40   25   31 ar
    41   26   27 1
    42   26   28 ar
    43   27   44 1
    44   27   45 1
    45   28   29 ar
    46   28   47 1
    47   29   30 ar
    48   29   46 1
    49   30   31 ar
@<TRIPOS>SUBSTRUCTURE
     1 ACP         1 GROUP 0 A     ****
@<TRIPOS>MOLECULE
[[5-(6-amino-1,8-dihydropurine-6,8-diylium-7-id-9-yl)-3,4-dihydroxy-tetrahydrofuran-2-yl]methoxy-oxido-phosphoryl]oxy-[[hydroxy(oxido)phosphoryl]methyl]phosphinate
   47    49     1     0     0
SMALL
USER_CHARGES

@<TRIPOS>ATOM
      1 PG         -0.5533   -4.8482   -2.0955 P.3       1 ACP        -1.2804
      2 O1G        -0.0662   -6.2186   -1.6862 O.co2     1 ACP         0.3195
      3 O2G        -2.0200   -4.4834   -2.0949 O.co2     1 ACP         0.3195
      4 O3G         0.2866   -3.7099   -1.2838 O.3       1 ACP         0.0326
      5 PB         -0.2371   -2.9392   -4.7091 P.3       1 ACP        -1.2804
      6 O1B        -1.7343   -2.8271   -4.8771 O.co2     1 ACP         0.3195
      7 O2B         0.7098   -2.8972   -5.8864 O.co2     1 ACP         0.3195
      8 C3B         0.0997   -4.5058   -3.7892 C.3       1 ACP         0.8942
      9 PA          0.1597   -0.2651   -3.4849 P.3       1 ACP        -1.1062
     10 O1A        -1.2995    0.1091   -3.3420 O.co2     1 ACP         0.3195
     11 O2A         1.0029    0.3283   -4.5928 O.co2     1 ACP         0.3195
     12 O3A         0.2694   -1.8925   -3.5663 O.3       1 ACP         0.4672
     13 O5'         0.8970   -0.0132   -2.0468 O.3       1 ACP         0.1618
     14 C5'         2.2816   -0.2918   -1.9206 C.3       1 ACP         0.1504
     15 C4'         2.7248    0.0226   -0.4980 C.3       1 ACP         0.1111
     16 O4'         2.4697    1.4219   -0.2462 O.3       1 ACP        -0.1436
     17 C3'         1.9404   -0.7419    0.5596 C.3       1 ACP         0.1111
     18 O3'         2.7418   -0.8086    1.7389 O.3       1 ACP        -0.2728
     19 C2'         0.7477    0.1630    0.7858 C.3       1 ACP         0.1111
     20 O2'         0.1373   -0.0577    2.0407 O.3       1 ACP        -0.2728
     21 C1'         1.3733    1.5427    0.6747 C.3       1 ACP         0.2693
     22 N9          0.4520    2.5240    0.1767 N.pl3     1 ACP        -0.3222
     23 C8          0.5793    3.3338   -1.1209 C.ar      1 ACP         0.1640
     24 N7         -0.4807    4.1508   -1.2458 N.2       1 ACP        -0.1640
     25 C5         -1.1921    3.8572   -0.1126 C.ar      1 ACP         0.0820
     26 C6         -2.4855    4.5203    0.2163 C.ar      1 ACP         0.1640
     27 N6         -2.9873    5.4319   -0.6020 N.pl3     1 ACP        -0.4916
     28 N1         -3.0414    4.1119    1.3596 N.pl3     1 ACP        -0.4390
     29 C2         -2.4169    3.1071    2.1904 C.ar      1 ACP         0.5691
     30 N3         -1.2928    2.5191    1.9210 N.ar      1 ACP        -0.4283
     31 C4         -0.7202    2.9326    0.7534 C.ar      1 ACP         0.2226
     32 HOG3        0.2460   -3.7085   -0.3038 H         1 ACP         0.2010
     33 H3B1       -0.2608   -5.3228   -4.4240 H         1 ACP        -0.0393
     34 H3B2        1.1900   -4.5951   -3.7284 H         1 ACP        -0.0393
     35 H5'1        2.4525   -1.3484   -2.1500 H         1 ACP        -0.0393
     36 H5'2        2.8335    0.3232   -2.6384 H         1 ACP        -0.0393
     37 H4'         3.8046   -0.1390   -0.4011 H         1 ACP        -0.0393
     38 H3'         1.6787   -1.7627    0.2719 H         1 ACP        -0.0393
     39 HO3'        2.2231   -1.2979    2.3952 H         1 ACP         0.2010
     40 H2'         0.0002   -0.0084   -0.0014 H         1 ACP        -0.0393
     41 HO2'       -0.1554   -0.9852    2.0577 H         1 ACP         0.2010
     42 H1'         1.7718    1.9211    1.6015 H         1 ACP        -0.0393
     43 H8          1.3565    3.3309   -1.8916 H         1 ACP         0.0000
     44 HN61       -2.4952    5.6785   -1.4487 H         1 ACP         0.2048
     45 HN62       -3.8637    5.8828   -0.3819 H         1 ACP         0.2048
     46 H2         -2.9911    2.8734    3.1000 H         1 ACP        -0.1292
     47 H47        -3.9253    4.5332    1.6302 H         1 ACP         0.2048
@<TRIPOS>BOND
     1    1    2 2
     2    1    3 1
     3    1    4 1
     4    1    8 1
     5    4   32 1
     6    5    6 2
     7    5    7 1
     8    5    8 1
     9    5   12 1
    10    8   33 1
    11    8   34 1
    12    9   10 2
    13    9   11 1
    14    9   12 1
    15    9   13 1
    16   13   14 1
    17   14   15 1
    18   14   35 1
    19   14   36 1
    20   15   16 1
    21   15   17 1
    22   15   37 1
    23   16   21 1
    24   17   18 1
    25   17   19 1
    26   17   38 1
    27   18   39 1
    28   19   20 1
    29   19   21 1
    30   19   40 1
    31   20   41 1
    32   21   22 1
    33   21   42 1
    34   22   23 ar
    35   22   31 ar
    36   23   24 ar
    37   23   43 1
    38   24   25 ar
    39   25   26 ar
    40   25   31 ar
    41   26   27 1
    42   26   28 ar
    43   27   44 1
    44   27   45 1
    45   28   29 ar
    46   28   47 1
    47   29   30 ar
    48   29   46 1
    49   30   31 ar
@<TRIPOS>SUBSTRUCTURE
     1 ACP         1 GROUP 0 A     ****
@<TRIPOS>MOLECULE
[[5-(6-amino-1,8-dihydropurine-6,8-diylium-7-id-9-yl)-3,4-dihydroxy-tetrahydrofuran-2-yl]methoxy-oxido-phosphoryl]oxy-[[hydroxy(oxido)phosphoryl]methyl]phosphinate
   47    49     1     0     0
SMALL
USER_CHARGES

@<TRIPOS>ATOM
      1 PG          0.1935   -3.1005   -4.9249 P.3       1 ACP        -1.2804
      2 O1G        -0.4776   -4.2226   -5.6822 O.co2     1 ACP         0.3195
      3 O2G        -0.4823   -2.3909   -3.7744 O.co2     1 ACP         0.3195
      4 O3G         1.6857   -3.5728   -4.4665 O.3       1 ACP         0.0326
      5 PB          1.5457   -0.2441   -5.6916 P.3       1 ACP        -1.2804
      6 O1B         0.6408    0.5026   -4.7396 O.co2     1 ACP         0.3195
      7 O2B         2.0601    0.3798   -6.9686 O.co2     1 ACP         0.3195
      8 C3B         0.6862   -1.8129   -6.1544 C.3       1 ACP         0.8942
      9 PA          3.9534   -0.2075   -3.9573 P.3       1 ACP        -1.1062
     10 O1A         4.6225    0.8729   -4.7788 O.co2     1 ACP         0.3195
     11 O2A         4.7732   -1.3027   -3.3100 O.co2     1 ACP         0.3195
     12 O3A         2.7896   -0.9020   -4.8683 O.3       1 ACP         0.4672
     13 O5'         3.0198    0.5138   -2.8245 O.3       1 ACP         0.1618
     14 C5'         2.2816   -0.2918   -1.9206 C.3       1 ACP         0.1504
     15 C4'         2.7248    0.0226   -0.4980 C.3       1 ACP         0.1111
     16 O4'         2.4697    1.4219   -0.2462 O.3       1 ACP        -0.1436
     17 C3'         1.9404   -0.7419    0.5596 C.3       1 ACP         0.1111
     18 O3'         2.7418   -0.8086    1.7389 O.3       1 ACP        -0.2728
     19 C2'         0.7477    0.1630    0.7858 C.3       1 ACP         0.1111
     20 O2'         0.1373   -0.0577    2.0407 O.3       1 ACP        -0.2728
     21 C1'         1.3733    1.5427    0.6747 C.3       1 ACP         0.2693
     22 N9          0.4520    2.5240    0.1767 N.pl3     1 ACP        -0.3222
     23 C8         -0.8593    2.9753    0.8343 C.ar      1 ACP         0.1640
     24 N7         -1.4458    3.9121    0.0693 N.2       1 ACP        -0.1640
     25 C5         -0.5581    4.0180   -0.9686 C.ar      1 ACP         0.0820
     26 C6         -0.7663    4.9543   -2.1092 C.ar      1 ACP         0.1640
     27 N6         -1.8429    5.7238   -2.1440 N.pl3     1 ACP        -0.4916
     28 N1          0.1993    4.9263   -3.0311 N.pl3     1 ACP        -0.4390
     29 C2          1.3416    4.0491   -2.9069 C.ar      1 ACP         0.5691
     30 N3          1.5401    3.2284   -1.9225 N.ar      1 ACP        -0.4283
     31 C4          0.5563    3.2529   -0.9772 C.ar      1 ACP         0.2226
     32 HOG3        1.7695   -4.3558   -3.8817 H         1 ACP         0.2010
     33 H3B1       -0.2336   -1.5220   -6.6739 H         1 ACP        -0.0393
     34 H3B2        1.3324   -2.3099   -6.8864 H         1 ACP        -0.0393
     35 H5'1        1.2153   -0.0781   -2.0454 H         1 ACP        -0.0393
     36 H5'2        2.4645   -1.3454   -2.1547 H         1 ACP        -0.0393
     37 H4'         3.8046   -0.1390   -0.4011 H         1 ACP        -0.0393
     38 H3'         1.6787   -1.7627    0.2719 H         1 ACP        -0.0393
     39 HO3'        2.2231   -1.2979    2.3952 H         1 ACP         0.2010
     40 H2'         0.0002   -0.0084   -0.0014 H         1 ACP        -0.0393
     41 HO2'       -0.1554   -0.9852    2.0577 H         1 ACP         0.2010
     42 H1'         1.7718    1.9211    1.6015 H         1 ACP        -0.0393
     43 H8         -1.3368    2.6590    1.7670 H         1 ACP         0.0000
     44 HN61       -2.5230    5.6776   -1.3990 H         1 ACP         0.2048
     45 HN62       -1.9865    6.3594   -2.9154 H         1 ACP         0.2048
     46 H2          2.0529    4.1368   -3.7423 H         1 ACP        -0.1292
     47 H47         0.1054    5.5465   -3.8301 H         1 ACP         0.2048
@<TRIPOS>BOND
     1    1    2 2
     2    1    3 1
     3    1    4 1
     4    1    8 1
     5    4   32 1
     6    5    6 2
     7    5    7 1
     8    5    8 1
     9    5   12 1
    10    8   33 1
    11    8   34 1
    12    9   10 2
    13    9   11 1
    14    9   12 1
    15    9   13 1
    16   13   14 1
    17   14   15 1
    18   14   35 1
    19   14   36 1
    20   15   16 1
    21   15   17 1
    22   15   37 1
    23   16   21 1
    24   17   18 1
    25   17   19 1
    26   17   38 1
    27   18   39 1
    28   19   20 1
    29   19   21 1
    30   19   40 1
    31   20   41 1
    32   21   22 1
    33   21   42 1
    34   22   23 ar
    35   22   31 ar
    36   23   24 ar
    37   23   43 1
    38   24   25 ar
    39   25   26 ar
    40   25   31 ar
    41   26   27 1
    42   26   28 ar
    43   27   44 1
    44   27   45 1
    45   28   29 ar
    46   28   47 1
    47   29   30 ar
    48   29   46 1
    49   30   31 ar
@<TRIPOS>SUBSTRUCTURE
     1 ACP         1 GROUP 0 A     ****
@<TRIPOS>MOLECULE
[[5-(6-amino-1,8-dihydropurine-6,8-diylium-7-id-9-yl)-3,4-dihydroxy-tetrahydrofuran-2-yl]methoxy-oxido-phosphoryl]oxy-[[hydroxy(oxido)phosphoryl]methyl]phosphinate
   47    49     1     0     0
SMALL
USER_CHARGES

@<TRIPOS>ATOM
      1 PG          6.6984    1.2034   -3.7660 P.3       1 ACP        -1.2804
      2 O1G         8.0432    1.5178   -3.1532 O.co2     1 ACP         0.3195
      3 O2G         5.4063    1.3803   -3.0022 O.co2     1 ACP         0.3195
      4 O3G         6.5759    1.9448   -5.2135 O.3       1 ACP         0.0326
      5 PB          5.3244   -1.3769   -5.1905 P.3       1 ACP        -1.2804
      6 O1B         5.7568   -2.7849   -5.5268 O.co2     1 ACP         0.3195
      7 O2B         4.7951   -0.4259   -6.2392 O.co2     1 ACP         0.3195
      8 C3B         6.7513   -0.5436   -4.3636 C.3       1 ACP         0.8942
      9 PA          2.8591   -2.1299   -3.7201 P.3       1 ACP        -1.1062
     10 O1A         3.0727   -3.6280   -3.7234 O.co2     1 ACP         0.3195
     11 O2A         1.8686   -1.4903   -4.6689 O.co2     1 ACP         0.3195
     12 O3A         4.3077   -1.4018   -3.9162 O.3       1 ACP         0.4672
     13 O5'         2.5237   -1.6631   -2.1889 O.3       1 ACP         0.1618
     14 C5'         2.2816   -0.2918   -1.9206 C.3       1 ACP         0.1504
     15 C4'         2.7248    0.0226   -0.4980 C.3       1 ACP         0.1111
     16 O4'         2.4697    1.4219   -0.2462 O.3       1 ACP        -0.1436
     17 C3'         1.9404   -0.7419    0.5596 C.3       1 ACP         0.1111
     18 O3'         2.7418   -0.8086    1.7389 O.3       1 ACP        -0.2728
     19 C2'         0.7477    0.1630    0.7858 C.3       1 ACP         0.1111
     20 O2'         0.1373   -0.0577    2.0407 O.3       1 ACP        -0.2728
     21 C1'         1.3733    1.5427    0.6747 C.3       1 ACP         0.2693
     22 N9          0.4520    2.5240    0.1767 N.pl3     1 ACP        -0.3222
     23 C8         -1.0660    2.5608    0.3999 C.ar      1 ACP         0.1640
     24 N7         -1.5852    3.6333   -0.2221 N.2       1 ACP        -0.1640
     25 C5         -0.4682    4.1996   -0.7771 C.ar      1 ACP         0.0820
     26 C6         -0.5216    5.4476   -1.5899 C.ar      1 ACP         0.1640
     27 N6         -1.6813    6.0510   -1.7982 N.pl3     1 ACP        -0.4916
     28 N1          0.6621    5.8575   -2.0523 N.pl3     1 ACP        -0.4390
     29 C2          1.8795    5.1301   -1.7717 C.ar      1 ACP         0.5691
     30 N3          1.9458    4.0434   -1.0670 N.ar      1 ACP        -0.4283
     31 C4          0.7388    3.6199   -0.5917 C.ar      1 ACP         0.2226
     32 HOG3        6.6441    2.9228   -5.2453 H         1 ACP         0.2010
     33 H3B1        7.0053   -1.1551   -3.4907 H         1 ACP        -0.0393
     34 H3B2        7.5906   -0.6094   -5.0649 H         1 ACP        -0.0393
     35 H5'1        2.8429    0.3140   -2.6391 H         1 ACP        -0.0393
     36 H5'2        1.2125   -0.0906   -2.0420 H         1 ACP        -0.0393
     37 H4'         3.8046   -0.1390   -0.4011 H         1 ACP        -0.0393
     38 H3'         1.6787   -1.7627    0.2719 H         1 ACP        -0.0393
     39 HO3'        2.2231   -1.2979    2.3952 H         1 ACP         0.2010
     40 H2'         0.0002   -0.0084   -0.0014 H         1 ACP        -0.0393
     41 HO2'       -0.1554   -0.9852    2.0577 H         1 ACP         0.2010
     42 H1'         1.7718    1.9211    1.6015 H         1 ACP        -0.0393
     43 H8         -1.7235    1.8833    0.9537 H         1 ACP         0.0000
     44 HN61       -2.5296    5.6672   -1.4072 H         1 ACP         0.2048
     45 HN62       -1.7205    6.8969   -2.3483 H         1 ACP         0.2048
     46 H2          2.7750    5.5878   -2.2190 H         1 ACP        -0.1292
     47 H47         0.6808    6.7046   -2.6128 H         1 ACP         0.2048
@<TRIPOS>BOND
     1    1    2 2
     2    1    3 1
     3    1    4 1
     4    1    8 1
     5    4   32 1
     6    5    6 2
     7    5    7 1
     8    5    8 1
     9    5   12 1
    10    8   33 1
    11    8   34 1
    12    9   10 2
    13    9   11 1
    14    9   12 1
    15    9   13 1
    16   13   14 1
    17   14   15 1
    18   14   35 1
    19   14   36 1
    20   15   16 1
    21   15   17 1
    22   15   37 1
    23   16   21 1
    24   17   18 1
    25   17   19 1
    26   17   38 1
    27   18   39 1
    28   19   20 1
    29   19   21 1
    30   19   40 1
    31   20   41 1
    32   21   22 1
    33   21   42 1
    34   22   23 ar
    35   22   31 ar
    36   23   24 ar
    37   23   43 1
    38   24   25 ar
    39   25   26 ar
    40   25   31 ar
    41   26   27 1
    42   26   28 ar
    43   27   44 1
    44   27   45 1
    45   28   29 ar
    46   28   47 1
    47   29   30 ar
    48   29   46 1
    49   30   31 ar
@<TRIPOS>SUBSTRUCTURE
     1 ACP         1 GROUP 0 A     ****
@<TRIPOS>MOLECULE
[[5-(6-amino-1,8-dihydropurine-6,8-diylium-7-id-9-yl)-3,4-dihydroxy-tetrahydrofuran-2-yl]methoxy-oxido-phosphoryl]oxy-[[hydroxy(oxido)phosphoryl]methyl]phosphinate
   47    49     1     0     0
SMALL
USER_CHARGES

@<TRIPOS>ATOM
      1 PG          1.6296    1.3587   -6.4075 P.3       1 ACP        -1.2804
      2 O1G         2.4580    2.3352   -7.2094 O.co2     1 ACP         0.3195
      3 O2G         1.5628    1.4114   -4.8985 O.co2     1 ACP         0.3195
      4 O3G         0.1164    1.3062   -7.0135 O.3       1 ACP         0.0326
      5 PB          1.4292   -1.8769   -6.1501 P.3       1 ACP        -1.2804
      6 O1B         2.1270   -3.0578   -6.7835 O.co2     1 ACP         0.3195
      7 O2B        -0.0730   -1.7149   -6.1884 O.co2     1 ACP         0.3195
      8 C3B         2.1652   -0.3457   -6.8768 C.3       1 ACP         0.8942
      9 PA          1.5537   -2.4539   -3.2418 P.3       1 ACP        -1.1062
     10 O1A         2.0300   -3.8868   -3.3414 O.co2     1 ACP         0.3195
     11 O2A         0.1072   -2.1427   -2.9238 O.co2     1 ACP         0.3195
     12 O3A         1.9587   -1.6787   -4.6209 O.3       1 ACP         0.4672
     13 O5'         2.5237   -1.6631   -2.1889 O.3       1 ACP         0.1618
     14 C5'         2.2816   -0.2918   -1.9206 C.3       1 ACP         0.1504
     15 C4'         2.7248    0.0226   -0.4980 C.3       1 ACP         0.1111
     16 O4'         2.4697    1.4219   -0.2462 O.3       1 ACP        -0.1436
     17 C3'         1.9404   -0.7419    0.5596 C.3       1 ACP         0.1111
     18 O3'         2.7418   -0.8086    1.7389 O.3       1 ACP        -0.2728
     19 C2'         0.7477    0.1630    0.7858 C.3       1 ACP         0.1111
     20 O2'         0.1373   -0.0577    2.0407 O.3       1 ACP        -0.2728
     21 C1'         1.3733    1.5427    0.6747 C.3       1 ACP         0.2693
     22 N9          0.4520    2.5240    0.1767 N.pl3     1 ACP        -0.3222
     23 C8         -1.0660    2.5608    0.3999 C.ar      1 ACP         0.1640
     24 N7         -1.5852    3.6333   -0.2221 N.2       1 ACP        -0.1640
     25 C5         -0.4682    4.1996   -0.7771 C.ar      1 ACP         0.0820
     26 C6         -0.5216    5.4476   -1.5899 C.ar      1 ACP         0.1640
     27 N6         -1.6813    6.0510   -1.7982 N.pl3     1 ACP        -0.4916
     28 N1          0.6621    5.8575   -2.0523 N.pl3     1 ACP        -0.4390
     29 C2          1.8795    5.1301   -1.7717 C.ar      1 ACP         0.5691
     30 N3          1.9458    4.0434   -1.0670 N.ar      1 ACP        -0.4283
     31 C4          0.7388    3.6199   -0.5917 C.ar      1 ACP         0.2226
     32 HOG3       -0.4115    2.1328   -7.0257 H         1 ACP         0.2010
     33 H3B1        3.2411   -0.3919   -6.6748 H         1 ACP        -0.0393
     34 H3B2        2.0318   -0.4285   -7.9611 H         1 ACP        -0.0393
     35 H5'1        2.8429    0.3140   -2.6391 H         1 ACP        -0.0393
     36 H5'2        1.2125   -0.0906   -2.0420 H         1 ACP        -0.0393
     37 H4'         3.8046   -0.1390   -0.4011 H         1 ACP        -0.0393
     38 H3'         1.6787   -1.7627    0.2719 H         1 ACP        -0.0393
     39 HO3'        2.2231   -1.2979    2.3952 H         1 ACP         0.2010
     40 H2'         0.0002   -0.0084   -0.0014 H         1 ACP        -0.0393
     41 HO2'       -0.1554   -0.9852    2.0577 H         1 ACP         0.2010
     42 H1'         1.7718    1.9211    1.6015 H         1 ACP        -0.0393
     43 H8         -1.7235    1.8833    0.9537 H         1 ACP         0.0000
     44 HN61       -2.5296    5.6672   -1.4072 H         1 ACP         0.2048
     45 HN62       -1.7205    6.8969   -2.3483 H         1 ACP         0.2048
     46 H2          2.7750    5.5878   -2.2190 H         1 ACP        -0.1292
     47 H47         0.6808    6.7046   -2.6128 H         1 ACP         0.2048
@<TRIPOS>BOND
     1    1    2 2
     2    1    3 1
     3    1    4 1
     4    1    8 1
     5    4   32 1
     6    5    6 2
     7    5    7 1
     8    5    8 1
     9    5   12 1
    10    8   33 1
    11    8   34 1
    12    9   10 2
    13    9   11 1
    14    9   12 1
    15    9   13 1
    16   13   14 1
    17   14   15 1
    18   14   35 1
    19   14   36 1
    20   15   16 1
    21   15   17 1
    22   15   37 1
    23   16   21 1
    24   17   18 1
    25   17   19 1
    26   17   38 1
    27   18   39 1
    28   19   20 1
    29   19   21 1
    30   19   40 1
    31   20   41 1
    32   21   22 1
    33   21   42 1
    34   22   23 ar
    35   22   31 ar
    36   23   24 ar
    37   23   43 1
    38   24   25 ar
    39   25   26 ar
    40   25   31 ar
    41   26   27 1
    42   26   28 ar
    43   27   44 1
    44   27   45 1
    45   28   29 ar
    46   28   47 1
    47   29   30 ar
    48   29   46 1
    49   30   31 ar
@<TRIPOS>SUBSTRUCTURE
     1 ACP         1 GROUP 0 A     ****
@<TRIPOS>MOLECULE
[[5-(6-amino-1,8-dihydropurine-6,8-diylium-7-id-9-yl)-3,4-dihydroxy-tetrahydrofuran-2-yl]methoxy-oxido-phosphoryl]oxy-[[hydroxy(oxido)phosphoryl]methyl]phosphinate
   47    49     1     0     0
SMALL
USER_CHARGES

@<TRIPOS>ATOM
      1 PG          2.7492   -7.0457    5.1444 P.3       1 ACP        -1.2804
      2 O1G         3.8184   -6.3796    5.9787 O.co2     1 ACP         0.3195
      3 O2G         2.5711   -6.7417    3.6747 O.co2     1 ACP         0.3195
      4 O3G         2.8245   -8.6611    5.3565 O.3       1 ACP         0.0326
      5 PB         -0.4821   -7.3707    5.3117 P.3       1 ACP        -1.2804
      6 O1B        -1.5672   -6.9189    6.2611 O.co2     1 ACP         0.3195
      7 O2B        -0.2825   -8.8250    4.9518 O.co2     1 ACP         0.3195
      8 C3B         1.1255   -6.7426    5.9713 C.3       1 ACP         0.8942
      9 PA         -1.7212   -6.2756    2.8475 P.3       1 ACP        -1.1062
     10 O1A        -2.8677   -5.5415    3.5081 O.co2     1 ACP         0.3195
     11 O2A        -1.9532   -7.5972    2.1476 O.co2     1 ACP         0.3195
     12 O3A        -0.5331   -6.4756    3.9500 O.3       1 ACP         0.4672
     13 O5'        -0.9728   -5.2427    1.8237 O.3       1 ACP         0.1618
     14 C5'        -0.7840   -3.8935    2.2172 C.3       1 ACP         0.1504
     15 C4'        -0.0724   -3.1466    1.1027 C.3       1 ACP         0.1111
     16 O4'        -0.8674   -3.1929   -0.0945 O.3       1 ACP        -0.1436
     17 C3'         0.1338   -1.6715    1.4027 C.3       1 ACP         0.1111
     18 O3'         1.2893   -1.4445    2.1808 O.3       1 ACP        -0.2728
     19 C2'         0.2158   -1.0724    0.0128 C.3       1 ACP         0.1111
     20 O2'         1.5141   -1.2448   -0.5513 O.3       1 ACP        -0.2728
     21 C1'        -0.7897   -1.9176   -0.7583 C.3       1 ACP         0.2693
     22 N9         -2.1040   -1.3333   -0.7704 N.pl3     1 ACP        -0.3222
     23 C8         -3.2124   -1.5345    0.2719 C.ar      1 ACP         0.1640
     24 N7         -4.2964   -0.8234   -0.0828 N.2       1 ACP        -0.1640
     25 C5         -3.8754   -0.2386   -1.2478 C.ar      1 ACP         0.0820
     26 C6         -4.7432    0.6719   -2.0470 C.ar      1 ACP         0.1640
     27 N6         -5.9725    0.9415   -1.6366 N.pl3     1 ACP        -0.4916
     28 N1         -4.1703    1.1517   -3.1536 N.pl3     1 ACP        -0.4390
     29 C2         -2.8174    0.7994   -3.5215 C.ar      1 ACP         0.5691
     30 N3         -2.0475    0.0097   -2.8393 N.ar      1 ACP        -0.4283
     31 C4         -2.6278   -0.4836   -1.7071 C.ar      1 ACP         0.2226
     32 HOG3        3.6548   -9.1259    5.1185 H         1 ACP         0.2010
     33 H3B1        1.0247   -5.6545    6.0518 H         1 ACP        -0.0393
     34 H3B2        1.2133   -7.1394    6.9888 H         1 ACP        -0.0393
     35 H5'1       -1.7614   -3.4427    2.4167 H         1 ACP        -0.0393
     36 H5'2       -0.1870   -3.8723    3.1344 H         1 ACP        -0.0393
     37 H4'         0.8883   -3.6447    0.8783 H         1 ACP        -0.0393
     38 H3'        -0.7368   -1.2359    1.9871 H         1 ACP        -0.0393
     39 HO3'        1.3407   -0.4871    2.3218 H         1 ACP         0.2010
     40 H2'        -0.0343   -0.0280    0.0196 H         1 ACP        -0.0393
     41 HO2'        2.1443   -0.7955    0.0378 H         1 ACP         0.2010
     42 H1'        -0.5175   -2.1046   -1.7826 H         1 ACP        -0.0393
     43 H8         -3.2310   -2.1319    1.1889 H         1 ACP         0.0000
     44 HN61       -6.3230    0.5316   -0.7829 H         1 ACP         0.2048
     45 HN62       -6.5628    1.5584   -2.1760 H         1 ACP         0.2048
     46 H2         -2.4822    1.2710   -4.4579 H         1 ACP        -0.1292
     47 H47        -4.7200    1.7780   -3.7346 H         1 ACP         0.2048
@<TRIPOS>BOND
     1    1    2 2
     2    1    3 1
     3    1    4 1
     4    1    8 1
     5    4   32 1
     6    5    6 2
     7    5    7 1
     8    5    8 1
     9    5   12 1
    10    8   33 1
    11    8   34 1
    12    9   10 2
    13    9   11 1
    14    9   12 1
    15    9   13 1
    16   13   14 1
    17   14   15 1
    18   14   35 1
    19   14   36 1
    20   15   16 1
    21   15   17 1
    22   15   37 1
    23   16   21 1
    24   17   18 1
    25   17   19 1
    26   17   38 1
    27   18   39 1
    28   19   20 1
    29   19   21 1
    30   19   40 1
    31   20   41 1
    32   21   22 1
    33   21   42 1
    34   22   23 ar
    35   22   31 ar
    36   23   24 ar
    37   23   43 1
    38   24   25 ar
    39   25   26 ar
    40   25   31 ar
    41   26   27 1
    42   26   28 ar
    43   27   44 1
    44   27   45 1
    45   28   29 ar
    46   28   47 1
    47   29   30 ar
    48   29   46 1
    49   30   31 ar
@<TRIPOS>SUBSTRUCTURE
     1 ACP         1 GROUP 0 A     ****
@<TRIPOS>MOLECULE
[[5-(6-amino-1,8-dihydropurine-6,8-diylium-7-id-9-yl)-3,4-dihydroxy-tetrahydrofuran-2-yl]methoxy-oxido-phosphoryl]oxy-[[hydroxy(oxido)phosphoryl]methyl]phosphinate
   47    49     1     0     0
SMALL
USER_CHARGES

@<TRIPOS>ATOM
      1 PG         -0.4854   -2.2007   -5.2387 P.3       1 ACP        -1.2804
      2 O1G        -0.6725   -3.5485   -5.8954 O.co2     1 ACP         0.3195
      3 O2G        -1.6216   -1.4753   -4.5552 O.co2     1 ACP         0.3195
      4 O3G         0.7985   -2.2607   -4.2348 O.3       1 ACP         0.0326
      5 PB          0.6188    0.7158   -6.1607 P.3       1 ACP        -1.2804
      6 O1B        -0.6637    1.3955   -5.7413 O.co2     1 ACP         0.3195
      7 O2B         1.4562    1.2194   -7.3137 O.co2     1 ACP         0.3195
      8 C3B         0.2183   -1.0548   -6.5052 C.3       1 ACP         0.8942
      9 PA          2.2208    1.5499   -3.8060 P.3       1 ACP        -1.1062
     10 O1A         1.0984    2.1840   -3.0136 O.co2     1 ACP         0.3195
     11 O2A         3.2201    2.4089   -4.5502 O.co2     1 ACP         0.3195
     12 O3A         1.5710    0.4830   -4.8579 O.3       1 ACP         0.4672
     13 O5'         3.0198    0.5138   -2.8245 O.3       1 ACP         0.1618
     14 C5'         2.2816   -0.2918   -1.9206 C.3       1 ACP         0.1504
     15 C4'         2.7248    0.0226   -0.4980 C.3       1 ACP         0.1111
     16 O4'         2.4697    1.4219   -0.2462 O.3       1 ACP        -0.1436
     17 C3'         1.9404   -0.7419    0.5596 C.3       1 ACP         0.1111
     18 O3'         2.7418   -0.8086    1.7389 O.3       1 ACP        -0.2728
     19 C2'         0.7477    0.1630    0.7858 C.3       1 ACP         0.1111
     20 O2'         0.1373   -0.0577    2.0407 O.3       1 ACP        -0.2728
     21 C1'         1.3733    1.5427    0.6747 C.3       1 ACP         0.2693
     22 N9          0.4520    2.5240    0.1767 N.pl3     1 ACP        -0.3222
     23 C8         -1.0247    2.3053   -0.1800 C.ar      1 ACP         0.1640
     24 N7         -1.5580    3.4612   -0.6116 N.2       1 ACP        -0.1640
     25 C5         -0.4873    4.3110   -0.5222 C.ar      1 ACP         0.0820
     26 C6         -0.5728    5.7505   -0.8981 C.ar      1 ACP         0.1640
     27 N6         -1.7163    6.2514   -1.3385 N.pl3     1 ACP        -0.4916
     28 N1          0.5667    6.4301   -0.7475 N.pl3     1 ACP        -0.4390
     29 C2          1.7697    5.7952   -0.2579 C.ar      1 ACP         0.5691
     30 N3          1.8633    4.5450    0.0742 N.ar      1 ACP        -0.4283
     31 C4          0.7014    3.8457   -0.0776 C.ar      1 ACP         0.2226
     32 HOG3        0.7824   -2.9018   -3.4926 H         1 ACP         0.2010
     33 H3B1       -0.4890   -1.0565   -7.3420 H         1 ACP        -0.0393
     34 H3B2        1.1474   -1.5137   -6.8608 H         1 ACP        -0.0393
     35 H5'1        1.2153   -0.0781   -2.0454 H         1 ACP        -0.0393
     36 H5'2        2.4645   -1.3454   -2.1547 H         1 ACP        -0.0393
     37 H4'         3.8046   -0.1390   -0.4011 H         1 ACP        -0.0393
     38 H3'         1.6787   -1.7627    0.2719 H         1 ACP        -0.0393
     39 HO3'        2.2231   -1.2979    2.3952 H         1 ACP         0.2010
     40 H2'         0.0002   -0.0084   -0.0014 H         1 ACP        -0.0393
     41 HO2'       -0.1554   -0.9852    2.0577 H         1 ACP         0.2010
     42 H1'         1.7718    1.9211    1.6015 H         1 ACP        -0.0393
     43 H8         -1.6458    1.4054   -0.1318 H         1 ACP         0.0000
     44 HN61       -2.5307    5.6598   -1.4199 H         1 ACP         0.2048
     45 HN62       -1.7773    7.2266   -1.5938 H         1 ACP         0.2048
     46 H2          2.6279    6.4808   -0.1872 H         1 ACP        -0.1292
     47 H47         0.5621    7.4166   -0.9900 H         1 ACP         0.2048
@<TRIPOS>BOND
     1    1    2 2
     2    1    3 1
     3    1    4 1
     4    1    8 1
     5    4   32 1
     6    5    6 2
     7    5    7 1
     8    5    8 1
     9    5   12 1
    10    8   33 1
    11    8   34 1
    12    9   10 2
    13    9   11 1
    14    9   12 1
    15    9   13 1
    16   13   14 1
    17   14   15 1
    18   14   35 1
    19   14   36 1
    20   15   16 1
    21   15   17 1
    22   15   37 1
    23   16   21 1
    24   17   18 1
    25   17   19 1
    26   17   38 1
    27   18   39 1
    28   19   20 1
    29   19   21 1
    30   19   40 1
    31   20   41 1
    32   21   22 1
    33   21   42 1
    34   22   23 ar
    35   22   31 ar
    36   23   24 ar
    37   23   43 1
    38   24   25 ar
    39   25   26 ar
    40   25   31 ar
    41   26   27 1
    42   26   28 ar
    43   27   44 1
    44   27   45 1
    45   28   29 ar
    46   28   47 1
    47   29   30 ar
    48   29   46 1
    49   30   31 ar
@<TRIPOS>SUBSTRUCTURE
     1 ACP         1 GROUP 0 A     ****
@<TRIPOS>MOLECULE
[[5-(6-amino-1,8-dihydropurine-6,8-diylium-7-id-9-yl)-3,4-dihydroxy-tetrahydrofuran-2-yl]methoxy-oxido-phosphoryl]oxy-[[hydroxy(oxido)phosphoryl]methyl]phosphinate
   47    49     1     0     0
SMALL
USER_CHARGES

@<TRIPOS>ATOM
      1 PG         -2.6814   -2.3954   -2.5009 P.3       1 ACP        -1.2804
      2 O1G        -3.8917   -1.6472   -1.9928 O.co2     1 ACP         0.3195
      3 O2G        -1.5076   -2.7257   -1.6080 O.co2     1 ACP         0.3195
      4 O3G        -3.1656   -3.7451   -3.2778 O.3       1 ACP         0.0326
      5 PB         -0.5385   -2.0089   -4.9163 P.3       1 ACP        -1.2804
      6 O1B        -0.3222   -0.9995   -6.0195 O.co2     1 ACP         0.3195
      7 O2B        -0.6970   -3.4856   -5.1968 O.co2     1 ACP         0.3195
      8 C3B        -2.0232   -1.4696   -3.9576 C.3       1 ACP         0.8942
      9 PA          2.1362   -2.2698   -3.6575 P.3       1 ACP        -1.1062
     10 O1A         2.9260   -1.5164   -4.7055 O.co2     1 ACP         0.3195
     11 O2A         2.1742   -3.7818   -3.6026 O.co2     1 ACP         0.3195
     12 O3A         0.5765   -1.7943   -3.7462 O.3       1 ACP         0.4672
     13 O5'         2.5237   -1.6631   -2.1889 O.3       1 ACP         0.1618
     14 C5'         2.2816   -0.2918   -1.9206 C.3       1 ACP         0.1504
     15 C4'         2.7248    0.0226   -0.4980 C.3       1 ACP         0.1111
     16 O4'         2.4697    1.4219   -0.2462 O.3       1 ACP        -0.1436
     17 C3'         1.9404   -0.7419    0.5596 C.3       1 ACP         0.1111
     18 O3'         2.7418   -0.8086    1.7389 O.3       1 ACP        -0.2728
     19 C2'         0.7477    0.1630    0.7858 C.3       1 ACP         0.1111
     20 O2'         0.1373   -0.0577    2.0407 O.3       1 ACP        -0.2728
     21 C1'         1.3733    1.5427    0.6747 C.3       1 ACP         0.2693
     22 N9          0.4520    2.5240    0.1767 N.pl3     1 ACP        -0.3222
     23 C8         -1.0247    2.3053   -0.1800 C.ar      1 ACP         0.1640
     24 N7         -1.5580    3.4612   -0.6116 N.2       1 ACP        -0.1640
     25 C5         -0.4873    4.3110   -0.5222 C.ar      1 ACP         0.0820
     26 C6         -0.5728    5.7505   -0.8981 C.ar      1 ACP         0.1640
     27 N6         -1.7163    6.2514   -1.3385 N.pl3     1 ACP        -0.4916
     28 N1          0.5667    6.4301   -0.7475 N.pl3     1 ACP        -0.4390
     29 C2          1.7697    5.7952   -0.2579 C.ar      1 ACP         0.5691
     30 N3          1.8633    4.5450    0.0742 N.ar      1 ACP        -0.4283
     31 C4          0.7014    3.8457   -0.0776 C.ar      1 ACP         0.2226
     32 HOG3       -3.6820   -4.4127   -2.7780 H         1 ACP         0.2010
     33 H3B1       -1.8119   -0.4551   -3.6019 H         1 ACP        -0.0393
     34 H3B2       -2.8435   -1.3990   -4.6805 H         1 ACP        -0.0393
     35 H5'1        2.8429    0.3140   -2.6391 H         1 ACP        -0.0393
     36 H5'2        1.2125   -0.0906   -2.0420 H         1 ACP        -0.0393
     37 H4'         3.8046   -0.1390   -0.4011 H         1 ACP        -0.0393
     38 H3'         1.6787   -1.7627    0.2719 H         1 ACP        -0.0393
     39 HO3'        2.2231   -1.2979    2.3952 H         1 ACP         0.2010
     40 H2'         0.0002   -0.0084   -0.0014 H         1 ACP        -0.0393
     41 HO2'       -0.1554   -0.9852    2.0577 H         1 ACP         0.2010
     42 H1'         1.7718    1.9211    1.6015 H         1 ACP        -0.0393
     43 H8         -1.6458    1.4054   -0.1318 H         1 ACP         0.0000
     44 HN61       -2.5307    5.6598   -1.4199 H         1 ACP         0.2048
     45 HN62       -1.7773    7.2266   -1.5938 H         1 ACP         0.2048
     46 H2          2.6279    6.4808   -0.1872 H         1 ACP        -0.1292
     47 H47         0.5621    7.4166   -0.9900 H         1 ACP         0.2048
@<TRIPOS>BOND
     1    1    2 2
     2    1    3 1
     3    1    4 1
     4    1    8 1
     5    4   32 1
     6    5    6 2
     7    5    7 1
     8    5    8 1
     9    5   12 1
    10    8   33 1
    11    8   34 1
    12    9   10 2
    13    9   11 1
    14    9   12 1
    15    9   13 1
    16   13   14 1
    17   14   15 1
    18   14   35 1
    19   14   36 1
    20   15   16 1
    21   15   17 1
    22   15   37 1
    23   16   21 1
    24   17   18 1
    25   17   19 1
    26   17   38 1
    27   18   39 1
    28   19   20 1
    29   19   21 1
    30   19   40 1
    31   20   41 1
    32   21   22 1
    33   21   42 1
    34   22   23 ar
    35   22   31 ar
    36   23   24 ar
    37   23   43 1
    38   24   25 ar
    39   25   26 ar
    40   25   31 ar
    41   26   27 1
    42   26   28 ar
    43   27   44 1
    44   27   45 1
    45   28   29 ar
    46   28   47 1
    47   29   30 ar
    48   29   46 1
    49   30   31 ar
@<TRIPOS>SUBSTRUCTURE
     1 ACP         1 GROUP 0 A     ****
@<TRIPOS>MOLECULE
[[5-(6-amino-1,8-dihydropurine-6,8-diylium-7-id-9-yl)-3,4-dihydroxy-tetrahydrofuran-2-yl]methoxy-oxido-phosphoryl]oxy-[[hydroxy(oxido)phosphoryl]methyl]phosphinate
   47    49     1     0     0
SMALL
USER_CHARGES

@<TRIPOS>ATOM
      1 PG          4.6899   -0.2182   -7.5464 P.3       1 ACP        -1.2804
      2 O1G         5.0548    1.0913   -8.2058 O.co2     1 ACP         0.3195
      3 O2G         3.2988   -0.8022   -7.6349 O.co2     1 ACP         0.3195
      4 O3G         5.7811   -1.3568   -7.9621 O.3       1 ACP         0.0326
      5 PB          4.8472   -1.4445   -4.5386 P.3       1 ACP        -1.2804
      6 O1B         5.3187   -0.9488   -3.1915 O.co2     1 ACP         0.3195
      7 O2B         5.3827   -2.7133   -5.1613 O.co2     1 ACP         0.3195
      8 C3B         5.1171   -0.0797   -5.7546 C.3       1 ACP         0.8942
      9 PA          2.1362   -2.2698   -3.6575 P.3       1 ACP        -1.1062
     10 O1A         2.4953   -3.7397   -3.6734 O.co2     1 ACP         0.3195
     11 O2A         0.7453   -1.8118   -4.0395 O.co2     1 ACP         0.3195
     12 O3A         3.2175   -1.4646   -4.5792 O.3       1 ACP         0.4672
     13 O5'         2.5237   -1.6631   -2.1889 O.3       1 ACP         0.1618
     14 C5'         2.2816   -0.2918   -1.9206 C.3       1 ACP         0.1504
     15 C4'         2.7248    0.0226   -0.4980 C.3       1 ACP         0.1111
     16 O4'         2.4697    1.4219   -0.2462 O.3       1 ACP        -0.1436
     17 C3'         1.9404   -0.7419    0.5596 C.3       1 ACP         0.1111
     18 O3'         2.7418   -0.8086    1.7389 O.3       1 ACP        -0.2728
     19 C2'         0.7477    0.1630    0.7858 C.3       1 ACP         0.1111
     20 O2'         0.1373   -0.0577    2.0407 O.3       1 ACP        -0.2728
     21 C1'         1.3733    1.5427    0.6747 C.3       1 ACP         0.2693
     22 N9          0.4520    2.5240    0.1767 N.pl3     1 ACP        -0.3222
     23 C8         -1.0660    2.5608    0.3999 C.ar      1 ACP         0.1640
     24 N7         -1.5852    3.6333   -0.2221 N.2       1 ACP        -0.1640
     25 C5         -0.4682    4.1996   -0.7771 C.ar      1 ACP         0.0820
     26 C6         -0.5216    5.4476   -1.5899 C.ar      1 ACP         0.1640
     27 N6         -1.6813    6.0510   -1.7982 N.pl3     1 ACP        -0.4916
     28 N1          0.6621    5.8575   -2.0523 N.pl3     1 ACP        -0.4390
     29 C2          1.8795    5.1301   -1.7717 C.ar      1 ACP         0.5691
     30 N3          1.9458    4.0434   -1.0670 N.ar      1 ACP        -0.4283
     31 C4          0.7388    3.6199   -0.5917 C.ar      1 ACP         0.2226
     32 HOG3        5.8899   -1.5756   -8.9121 H         1 ACP         0.2010
     33 H3B1        4.5635    0.7872   -5.3770 H         1 ACP        -0.0393
     34 H3B2        6.1837    0.1660   -5.7050 H         1 ACP        -0.0393
     35 H5'1        2.8429    0.3140   -2.6391 H         1 ACP        -0.0393
     36 H5'2        1.2125   -0.0906   -2.0420 H         1 ACP        -0.0393
     37 H4'         3.8046   -0.1390   -0.4011 H         1 ACP        -0.0393
     38 H3'         1.6787   -1.7627    0.2719 H         1 ACP        -0.0393
     39 HO3'        2.2231   -1.2979    2.3952 H         1 ACP         0.2010
     40 H2'         0.0002   -0.0084   -0.0014 H         1 ACP        -0.0393
     41 HO2'       -0.1554   -0.9852    2.0577 H         1 ACP         0.2010
     42 H1'         1.7718    1.9211    1.6015 H         1 ACP        -0.0393
     43 H8         -1.7235    1.8833    0.9537 H         1 ACP         0.0000
     44 HN61       -2.5296    5.6672   -1.4072 H         1 ACP         0.2048
     45 HN62       -1.7205    6.8969   -2.3483 H         1 ACP         0.2048
     46 H2          2.7750    5.5878   -2.2190 H         1 ACP        -0.1292
     47 H47         0.6808    6.7046   -2.6128 H         1 ACP         0.2048
@<TRIPOS>BOND
     1    1    2 2
     2    1    3 1
     3    1    4 1
     4    1    8 1
     5    4   32 1
     6    5    6 2
     7    5    7 1
     8    5    8 1
     9    5   12 1
    10    8   33 1
    11    8   34 1
    12    9   10 2
    13    9   11 1
    14    9   12 1
    15    9   13 1
    16   13   14 1
    17   14   15 1
    18   14   35 1
    19   14   36 1
    20   15   16 1
    21   15   17 1
    22   15   37 1
    23   16   21 1
    24   17   18 1
    25   17   19 1
    26   17   38 1
    27   18   39 1
    28   19   20 1
    29   19   21 1
    30   19   40 1
    31   20   41 1
    32   21   22 1
    33   21   42 1
    34   22   23 ar
    35   22   31 ar
    36   23   24 ar
    37   23   43 1
    38   24   25 ar
    39   25   26 ar
    40   25   31 ar
    41   26   27 1
    42   26   28 ar
    43   27   44 1
    44   27   45 1
    45   28   29 ar
    46   28   47 1
    47   29   30 ar
    48   29   46 1
    49   30   31 ar
@<TRIPOS>SUBSTRUCTURE
     1 ACP         1 GROUP 0 A     ****
@<TRIPOS>MOLECULE
[[5-(6-amino-1,8-dihydropurine-6,8-diylium-7-id-9-yl)-3,4-dihydroxy-tetrahydrofuran-2-yl]methoxy-oxido-phosphoryl]oxy-[[hydroxy(oxido)phosphoryl]methyl]phosphinate
   47    49     1     0     0
SMALL
USER_CHARGES

@<TRIPOS>ATOM
      1 PG         -1.0870   -9.6115    4.3774 P.3       1 ACP        -1.2804
      2 O1G        -1.7313  -10.7059    3.5589 O.co2     1 ACP         0.3195
      3 O2G        -1.8883   -8.7163    5.2943 O.co2     1 ACP         0.3195
      4 O3G         0.1840  -10.2237    5.1957 O.3       1 ACP         0.0326
      5 PB          0.7995   -7.0350    3.7625 P.3       1 ACP        -1.2804
      6 O1B         1.4128   -6.4127    2.5298 O.co2     1 ACP         0.3195
      7 O2B         1.6326   -7.4513    4.9528 O.co2     1 ACP         0.3195
      8 C3B        -0.1558   -8.5188    3.2150 C.3       1 ACP         0.8942
      9 PA         -0.5272   -4.5716    4.7518 P.3       1 ACP        -1.1062
     10 O1A         0.5026   -4.3627    5.8407 O.co2     1 ACP         0.3195
     11 O2A        -1.9772   -4.2040    4.9812 O.co2     1 ACP         0.3195
     12 O3A        -0.4587   -6.1302    4.2691 O.3       1 ACP         0.4672
     13 O5'         0.0099   -3.8403    3.3910 O.3       1 ACP         0.1618
     14 C5'        -0.7840   -3.8935    2.2172 C.3       1 ACP         0.1504
     15 C4'        -0.0724   -3.1466    1.1027 C.3       1 ACP         0.1111
     16 O4'        -0.8674   -3.1929   -0.0945 O.3       1 ACP        -0.1436
     17 C3'         0.1338   -1.6715    1.4027 C.3       1 ACP         0.1111
     18 O3'         1.2893   -1.4445    2.1808 O.3       1 ACP        -0.2728
     19 C2'         0.2158   -1.0724    0.0128 C.3       1 ACP         0.1111
     20 O2'         1.5141   -1.2448   -0.5513 O.3       1 ACP        -0.2728
     21 C1'        -0.7897   -1.9176   -0.7583 C.3       1 ACP         0.2693
     22 N9         -2.1040   -1.3333   -0.7704 N.pl3     1 ACP        -0.3222
     23 C8         -3.2124   -1.5345    0.2719 C.ar      1 ACP         0.1640
     24 N7         -4.2964   -0.8234   -0.0828 N.2       1 ACP        -0.1640
     25 C5         -3.8754   -0.2386   -1.2478 C.ar      1 ACP         0.0820
     26 C6         -4.7432    0.6719   -2.0470 C.ar      1 ACP         0.1640
     27 N6         -5.9725    0.9415   -1.6366 N.pl3     1 ACP        -0.4916
     28 N1         -4.1703    1.1517   -3.1536 N.pl3     1 ACP        -0.4390
     29 C2         -2.8174    0.7994   -3.5215 C.ar      1 ACP         0.5691
     30 N3         -2.0475    0.0097   -2.8393 N.ar      1 ACP        -0.4283
     31 C4         -2.6278   -0.4836   -1.7071 C.ar      1 ACP         0.2226
     32 HOG3        0.0233  -10.9522    5.8325 H         1 ACP         0.2010
     33 H3B1       -0.8874   -8.1640    2.4806 H         1 ACP        -0.0393
     34 H3B2        0.5560   -9.1607    2.6842 H         1 ACP        -0.0393
     35 H5'1       -0.9358   -4.9414    1.9395 H         1 ACP        -0.0393
     36 H5'2       -1.7558   -3.4349    2.4258 H         1 ACP        -0.0393
     37 H4'         0.8883   -3.6447    0.8783 H         1 ACP        -0.0393
     38 H3'        -0.7368   -1.2359    1.9871 H         1 ACP        -0.0393
     39 HO3'        1.1625   -1.9325    3.0084 H         1 ACP         0.2010
     40 H2'        -0.0343   -0.0280    0.0196 H         1 ACP        -0.0393
     41 HO2'        2.1443   -0.7955    0.0378 H         1 ACP         0.2010
     42 H1'        -0.5175   -2.1046   -1.7826 H         1 ACP        -0.0393
     43 H8         -3.2310   -2.1319    1.1889 H         1 ACP         0.0000
     44 HN61       -6.3230    0.5316   -0.7829 H         1 ACP         0.2048
     45 HN62       -6.5628    1.5584   -2.1760 H         1 ACP         0.2048
     46 H2         -2.4822    1.2710   -4.4579 H         1 ACP        -0.1292
     47 H47        -4.7200    1.7780   -3.7346 H         1 ACP         0.2048
@<TRIPOS>BOND
     1    1    2 2
     2    1    3 1
     3    1    4 1
     4    1    8 1
     5    4   32 1
     6    5    6 2
     7    5    7 1
     8    5    8 1
     9    5   12 1
    10    8   33 1
    11    8   34 1
    12    9   10 2
    13    9   11 1
    14    9   12 1
    15    9   13 1
    16   13   14 1
    17   14   15 1
    18   14   35 1
    19   14   36 1
    20   15   16 1
    21   15   17 1
    22   15   37 1
    23   16   21 1
    24   17   18 1
    25   17   19 1
    26   17   38 1
    27   18   39 1
    28   19   20 1
    29   19   21 1
    30   19   40 1
    31   20   41 1
    32   21   22 1
    33   21   42 1
    34   22   23 ar
    35   22   31 ar
    36   23   24 ar
    37   23   43 1
    38   24   25 ar
    39   25   26 ar
    40   25   31 ar
    41   26   27 1
    42   26   28 ar
    43   27   44 1
    44   27   45 1
    45   28   29 ar
    46   28   47 1
    47   29   30 ar
    48   29   46 1
    49   30   31 ar
@<TRIPOS>SUBSTRUCTURE
     1 ACP         1 GROUP 0 A     ****
@<TRIPOS>MOLECULE
[[5-(6-amino-1,8-dihydropurine-6,8-diylium-7-id-9-yl)-3,4-dihydroxy-tetrahydrofuran-2-yl]methoxy-oxido-phosphoryl]oxy-[[hydroxy(oxido)phosphoryl]methyl]phosphinate
   47    49     1     0     0
SMALL
USER_CHARGES

@<TRIPOS>ATOM
      1 PG         -2.0685   -2.8004    0.1231 P.3       1 ACP        -1.2804
      2 O1G        -2.9652   -2.0906    1.1105 O.co2     1 ACP         0.3195
      3 O2G        -0.5809   -2.9447    0.3482 O.co2     1 ACP         0.3195
      4 O3G        -2.7044   -4.2589   -0.2351 O.3       1 ACP         0.0326
      5 PB         -1.4067   -2.5274   -3.0491 P.3       1 ACP        -1.2804
      6 O1B        -1.8650   -1.6324   -4.1767 O.co2     1 ACP         0.3195
      7 O2B        -1.5067   -4.0335   -3.1262 O.co2     1 ACP         0.3195
      8 C3B        -2.3019   -1.9951   -1.5228 C.3       1 ACP         0.8942
      9 PA          1.5537   -2.4539   -3.2418 P.3       1 ACP        -1.1062
     10 O1A         1.6507   -1.7650   -4.5856 O.co2     1 ACP         0.3195
     11 O2A         1.7895   -3.9440   -3.1206 O.co2     1 ACP         0.3195
     12 O3A         0.0988   -2.1054   -2.5871 O.3       1 ACP         0.4672
     13 O5'         2.5237   -1.6631   -2.1889 O.3       1 ACP         0.1618
     14 C5'         2.2816   -0.2918   -1.9206 C.3       1 ACP         0.1504
     15 C4'         2.7248    0.0226   -0.4980 C.3       1 ACP         0.1111
     16 O4'         2.4697    1.4219   -0.2462 O.3       1 ACP        -0.1436
     17 C3'         1.9404   -0.7419    0.5596 C.3       1 ACP         0.1111
     18 O3'         2.7418   -0.8086    1.7389 O.3       1 ACP        -0.2728
     19 C2'         0.7477    0.1630    0.7858 C.3       1 ACP         0.1111
     20 O2'         0.1373   -0.0577    2.0407 O.3       1 ACP        -0.2728
     21 C1'         1.3733    1.5427    0.6747 C.3       1 ACP         0.2693
     22 N9          0.4520    2.5240    0.1767 N.pl3     1 ACP        -0.3222
     23 C8         -0.4598    3.4379    1.0068 C.ar      1 ACP         0.1640
     24 N7         -1.1770    4.2228    0.1845 N.2       1 ACP        -0.1640
     25 C5         -0.7330    3.8149   -1.0455 C.ar      1 ACP         0.0820
     26 C6         -1.2413    4.4029   -2.3169 C.ar      1 ACP         0.1640
     27 N6         -2.1578    5.3575   -2.2831 N.pl3     1 ACP        -0.4916
     28 N1         -0.6977    3.8860   -3.4216 N.pl3     1 ACP        -0.4390
     29 C2          0.3002    2.8419   -3.3591 C.ar      1 ACP         0.5691
     30 N3          0.7548    2.3183   -2.2631 N.ar      1 ACP        -0.4283
     31 C4          0.2027    2.8430   -1.1309 C.ar      1 ACP         0.2226
     32 HOG3       -2.8363   -4.9032    0.4927 H         1 ACP         0.2010
     33 H3B1       -2.0661   -0.9350   -1.3779 H         1 ACP        -0.0393
     34 H3B2       -3.3701   -2.0639   -1.7565 H         1 ACP        -0.0393
     35 H5'1        2.8429    0.3140   -2.6391 H         1 ACP        -0.0393
     36 H5'2        1.2125   -0.0906   -2.0420 H         1 ACP        -0.0393
     37 H4'         3.8046   -0.1390   -0.4011 H         1 ACP        -0.0393
     38 H3'         1.6787   -1.7627    0.2719 H         1 ACP        -0.0393
     39 HO3'        2.2231   -1.2979    2.3952 H         1 ACP         0.2010
     40 H2'         0.0002   -0.0084   -0.0014 H         1 ACP        -0.0393
     41 HO2'       -0.1554   -0.9852    2.0577 H         1 ACP         0.2010
     42 H1'         1.7718    1.9211    1.6015 H         1 ACP        -0.0393
     43 H8         -0.5892    3.5248    2.0902 H         1 ACP         0.0000
     44 HN61       -2.5128    5.6880   -1.3974 H         1 ACP         0.2048
     45 HN62       -2.5040    5.7581   -3.1431 H         1 ACP         0.2048
     46 H2          0.6550    2.5166   -4.3490 H         1 ACP        -0.1292
     47 H47        -1.0101    4.2527   -4.3160 H         1 ACP         0.2048
@<TRIPOS>BOND
     1    1    2 2
     2    1    3 1
     3    1    4 1
     4    1    8 1
     5    4   32 1
     6    5    6 2
     7    5    7 1
     8    5    8 1
     9    5   12 1
    10    8   33 1
    11    8   34 1
    12    9   10 2
    13    9   11 1
    14    9   12 1
    15    9   13 1
    16   13   14 1
    17   14   15 1
    18   14   35 1
    19   14   36 1
    20   15   16 1
    21   15   17 1
    22   15   37 1
    23   16   21 1
    24   17   18 1
    25   17   19 1
    26   17   38 1
    27   18   39 1
    28   19   20 1
    29   19   21 1
    30   19   40 1
    31   20   41 1
    32   21   22 1
    33   21   42 1
    34   22   23 ar
    35   22   31 ar
    36   23   24 ar
    37   23   43 1
    38   24   25 ar
    39   25   26 ar
    40   25   31 ar
    41   26   27 1
    42   26   28 ar
    43   27   44 1
    44   27   45 1
    45   28   29 ar
    46   28   47 1
    47   29   30 ar
    48   29   46 1
    49   30   31 ar
@<TRIPOS>SUBSTRUCTURE
     1 ACP         1 GROUP 0 A     ****
@<TRIPOS>MOLECULE
[[5-(6-amino-1,8-dihydropurine-6,8-diylium-7-id-9-yl)-3,4-dihydroxy-tetrahydrofuran-2-yl]methoxy-oxido-phosphoryl]oxy-[[hydroxy(oxido)phosphoryl]methyl]phosphinate
   47    49     1     0     0
SMALL
USER_CHARGES

@<TRIPOS>ATOM
      1 PG         -0.3345   -5.6184    7.0757 P.3       1 ACP        -1.2804
      2 O1G         0.0009   -4.6239    8.1626 O.co2     1 ACP         0.3195
      3 O2G         0.4818   -5.7296    5.8087 O.co2     1 ACP         0.3195
      4 O3G        -0.5150   -7.0997    7.7337 O.3       1 ACP         0.0326
      5 PB         -2.9482   -6.3157    5.2708 P.3       1 ACP        -1.2804
      6 O1B        -4.3573   -5.7830    5.1563 O.co2     1 ACP         0.3195
      7 O2B        -2.6592   -7.7737    5.5446 O.co2     1 ACP         0.3195
      8 C3B        -2.0899   -5.3310    6.5776 C.3       1 ACP         0.8942
      9 PA         -2.2655   -6.0670    2.3934 P.3       1 ACP        -1.1062
     10 O1A        -3.5204   -5.3466    1.9506 O.co2     1 ACP         0.3195
     11 O2A        -2.0841   -7.5430    2.1125 O.co2     1 ACP         0.3195
     12 O3A        -2.0647   -5.8165    3.9947 O.3       1 ACP         0.4672
     13 O5'        -0.9728   -5.2427    1.8237 O.3       1 ACP         0.1618
     14 C5'        -0.7840   -3.8935    2.2172 C.3       1 ACP         0.1504
     15 C4'        -0.0724   -3.1466    1.1027 C.3       1 ACP         0.1111
     16 O4'        -0.8674   -3.1929   -0.0945 O.3       1 ACP        -0.1436
     17 C3'         0.1338   -1.6715    1.4027 C.3       1 ACP         0.1111
     18 O3'         1.2893   -1.4445    2.1808 O.3       1 ACP        -0.2728
     19 C2'         0.2158   -1.0724    0.0128 C.3       1 ACP         0.1111
     20 O2'         1.5141   -1.2448   -0.5513 O.3       1 ACP        -0.2728
     21 C1'        -0.7897   -1.9176   -0.7583 C.3       1 ACP         0.2693
     22 N9         -2.1040   -1.3333   -0.7704 N.pl3     1 ACP        -0.3222
     23 C8         -3.2124   -1.5345    0.2719 C.ar      1 ACP         0.1640
     24 N7         -4.2964   -0.8234   -0.0828 N.2       1 ACP        -0.1640
     25 C5         -3.8754   -0.2386   -1.2478 C.ar      1 ACP         0.0820
     26 C6         -4.7432    0.6719   -2.0470 C.ar      1 ACP         0.1640
     27 N6         -5.9725    0.9415   -1.6366 N.pl3     1 ACP        -0.4916
     28 N1         -4.1703    1.1517   -3.1536 N.pl3     1 ACP        -0.4390
     29 C2         -2.8174    0.7994   -3.5215 C.ar      1 ACP         0.5691
     30 N3         -2.0475    0.0097   -2.8393 N.ar      1 ACP        -0.4283
     31 C4         -2.6278   -0.4836   -1.7071 C.ar      1 ACP         0.2226
     32 HOG3        0.2453   -7.4956    8.2105 H         1 ACP         0.2010
     33 H3B1       -2.1488   -4.2823    6.2657 H         1 ACP        -0.0393
     34 H3B2       -2.6944   -5.4371    7.4853 H         1 ACP        -0.0393
     35 H5'1       -1.7614   -3.4427    2.4167 H         1 ACP        -0.0393
     36 H5'2       -0.1870   -3.8723    3.1344 H         1 ACP        -0.0393
     37 H4'         0.8883   -3.6447    0.8783 H         1 ACP        -0.0393
     38 H3'        -0.7368   -1.2359    1.9871 H         1 ACP        -0.0393
     39 HO3'        1.3407   -0.4871    2.3218 H         1 ACP         0.2010
     40 H2'        -0.0343   -0.0280    0.0196 H         1 ACP        -0.0393
     41 HO2'        2.1443   -0.7955    0.0378 H         1 ACP         0.2010
     42 H1'        -0.5175   -2.1046   -1.7826 H         1 ACP        -0.0393
     43 H8         -3.2310   -2.1319    1.1889 H         1 ACP         0.0000
     44 HN61       -6.3230    0.5316   -0.7829 H         1 ACP         0.2048
     45 HN62       -6.5628    1.5584   -2.1760 H         1 ACP         0.2048
     46 H2         -2.4822    1.2710   -4.4579 H         1 ACP        -0.1292
     47 H47        -4.7200    1.7780   -3.7346 H         1 ACP         0.2048
@<TRIPOS>BOND
     1    1    2 2
     2    1    3 1
     3    1    4 1
     4    1    8 1
     5    4   32 1
     6    5    6 2
     7    5    7 1
     8    5    8 1
     9    5   12 1
    10    8   33 1
    11    8   34 1
    12    9   10 2
    13    9   11 1
    14    9   12 1
    15    9   13 1
    16   13   14 1
    17   14   15 1
    18   14   35 1
    19   14   36 1
    20   15   16 1
    21   15   17 1
    22   15   37 1
    23   16   21 1
    24   17   18 1
    25   17   19 1
    26   17   38 1
    27   18   39 1
    28   19   20 1
    29   19   21 1
    30   19   40 1
    31   20   41 1
    32   21   22 1
    33   21   42 1
    34   22   23 ar
    35   22   31 ar
    36   23   24 ar
    37   23   43 1
    38   24   25 ar
    39   25   26 ar
    40   25   31 ar
    41   26   27 1
    42   26   28 ar
    43   27   44 1
    44   27   45 1
    45   28   29 ar
    46   28   47 1
    47   29   30 ar
    48   29   46 1
    49   30   31 ar
@<TRIPOS>SUBSTRUCTURE
     1 ACP         1 GROUP 0 A     ****
@<TRIPOS>MOLECULE
[[5-(6-amino-1,8-dihydropurine-6,8-diylium-7-id-9-yl)-3,4-dihydroxy-tetrahydrofuran-2-yl]methoxy-oxido-phosphoryl]oxy-[[hydroxy(oxido)phosphoryl]methyl]phosphinate
   47    49     1     0     0
SMALL
USER_CHARGES

@<TRIPOS>ATOM
      1 PG          3.9468   -4.5744   -1.2258 P.3       1 ACP        -1.2804
      2 O1G         4.0378   -6.0763   -1.0889 O.co2     1 ACP         0.3195
      3 O2G         2.6726   -3.8821   -1.6517 O.co2     1 ACP         0.3195
      4 O3G         4.5157   -3.8712    0.1314 O.3       1 ACP         0.0326
      5 PB          5.5620   -2.2740   -2.8611 P.3       1 ACP        -1.2804
      6 O1B         6.7324   -2.2453   -3.8161 O.co2     1 ACP         0.3195
      7 O2B         5.5410   -1.4567   -1.5899 O.co2     1 ACP         0.3195
      8 C3B         5.2808   -4.0370   -2.3851 C.3       1 ACP         0.8942
      9 PA          3.4821   -0.6660   -4.2377 P.3       1 ACP        -1.1062
     10 O1A         2.1119   -1.0079   -4.7812 O.co2     1 ACP         0.3195
     11 O2A         4.4908    0.0668   -5.0956 O.co2     1 ACP         0.3195
     12 O3A         4.1739   -2.0373   -3.6828 O.3       1 ACP         0.4672
     13 O5'         3.2883    0.1336   -2.8242 O.3       1 ACP         0.1618
     14 C5'         2.2816   -0.2918   -1.9206 C.3       1 ACP         0.1504
     15 C4'         2.7248    0.0226   -0.4980 C.3       1 ACP         0.1111
     16 O4'         2.4697    1.4219   -0.2462 O.3       1 ACP        -0.1436
     17 C3'         1.9404   -0.7419    0.5596 C.3       1 ACP         0.1111
     18 O3'         2.7418   -0.8086    1.7389 O.3       1 ACP        -0.2728
     19 C2'         0.7477    0.1630    0.7858 C.3       1 ACP         0.1111
     20 O2'         0.1373   -0.0577    2.0407 O.3       1 ACP        -0.2728
     21 C1'         1.3733    1.5427    0.6747 C.3       1 ACP         0.2693
     22 N9          0.4520    2.5240    0.1767 N.pl3     1 ACP        -0.3222
     23 C8         -1.0660    2.5608    0.3999 C.ar      1 ACP         0.1640
     24 N7         -1.5852    3.6333   -0.2221 N.2       1 ACP        -0.1640
     25 C5         -0.4682    4.1996   -0.7771 C.ar      1 ACP         0.0820
     26 C6         -0.5216    5.4476   -1.5899 C.ar      1 ACP         0.1640
     27 N6         -1.6813    6.0510   -1.7982 N.pl3     1 ACP        -0.4916
     28 N1          0.6621    5.8575   -2.0523 N.pl3     1 ACP        -0.4390
     29 C2          1.8795    5.1301   -1.7717 C.ar      1 ACP         0.5691
     30 N3          1.9458    4.0434   -1.0670 N.ar      1 ACP        -0.4283
     31 C4          0.7388    3.6199   -0.5917 C.ar      1 ACP         0.2226
     32 HOG3        4.0736   -4.0731    0.9834 H         1 ACP         0.2010
     33 H3B1        5.1123   -4.5877   -3.3172 H         1 ACP        -0.0393
     34 H3B2        6.2263   -4.3927   -1.9609 H         1 ACP        -0.0393
     35 H5'1        1.3500    0.2325   -2.1560 H         1 ACP        -0.0393
     36 H5'2        2.1267   -1.3683   -2.0444 H         1 ACP        -0.0393
     37 H4'         3.8046   -0.1390   -0.4011 H         1 ACP        -0.0393
     38 H3'         1.6787   -1.7627    0.2719 H         1 ACP        -0.0393
     39 HO3'        2.2231   -1.2979    2.3952 H         1 ACP         0.2010
     40 H2'         0.0002   -0.0084   -0.0014 H         1 ACP        -0.0393
     41 HO2'       -0.1554   -0.9852    2.0577 H         1 ACP         0.2010
     42 H1'         1.7718    1.9211    1.6015 H         1 ACP        -0.0393
     43 H8         -1.7235    1.8833    0.9537 H         1 ACP         0.0000
     44 HN61       -2.5296    5.6672   -1.4072 H         1 ACP         0.2048
     45 HN62       -1.7205    6.8969   -2.3483 H         1 ACP         0.2048
     46 H2          2.7750    5.5878   -2.2190 H         1 ACP        -0.1292
     47 H47         0.6808    6.7046   -2.6128 H         1 ACP         0.2048
@<TRIPOS>BOND
     1    1    2 2
     2    1    3 1
     3    1    4 1
     4    1    8 1
     5    4   32 1
     6    5    6 2
     7    5    7 1
     8    5    8 1
     9    5   12 1
    10    8   33 1
    11    8   34 1
    12    9   10 2
    13    9   11 1
    14    9   12 1
    15    9   13 1
    16   13   14 1
    17   14   15 1
    18   14   35 1
    19   14   36 1
    20   15   16 1
    21   15   17 1
    22   15   37 1
    23   16   21 1
    24   17   18 1
    25   17   19 1
    26   17   38 1
    27   18   39 1
    28   19   20 1
    29   19   21 1
    30   19   40 1
    31   20   41 1
    32   21   22 1
    33   21   42 1
    34   22   23 ar
    35   22   31 ar
    36   23   24 ar
    37   23   43 1
    38   24   25 ar
    39   25   26 ar
    40   25   31 ar
    41   26   27 1
    42   26   28 ar
    43   27   44 1
    44   27   45 1
    45   28   29 ar
    46   28   47 1
    47   29   30 ar
    48   29   46 1
    49   30   31 ar
@<TRIPOS>SUBSTRUCTURE
     1 ACP         1 GROUP 0 A     ****
@<TRIPOS>MOLECULE
[[5-(6-amino-1,8-dihydropurine-6,8-diylium-7-id-9-yl)-3,4-dihydroxy-tetrahydrofuran-2-yl]methoxy-oxido-phosphoryl]oxy-[[hydroxy(oxido)phosphoryl]methyl]phosphinate
   47    49     1     0     0
SMALL
USER_CHARGES

@<TRIPOS>ATOM
      1 PG          6.3985   -4.0367   -1.7909 P.3       1 ACP        -1.2804
      2 O1G         6.3841   -5.1161   -0.7337 O.co2     1 ACP         0.3195
      3 O2G         6.2912   -2.5698   -1.4431 O.co2     1 ACP         0.3195
      4 O3G         7.6743   -4.2650   -2.7810 O.3       1 ACP         0.0326
      5 PB          4.6852   -3.3686   -4.4730 P.3       1 ACP        -1.2804
      6 O1B         3.5263   -4.0061   -5.2032 O.co2     1 ACP         0.3195
      7 O2B         6.0021   -3.0758   -5.1545 O.co2     1 ACP         0.3195
      8 C3B         5.0522   -4.4177   -2.9969 C.3       1 ACP         0.8942
      9 PA          3.4821   -0.6660   -4.2377 P.3       1 ACP        -1.1062
     10 O1A         2.1119   -1.0079   -4.7812 O.co2     1 ACP         0.3195
     11 O2A         4.4908    0.0668   -5.0956 O.co2     1 ACP         0.3195
     12 O3A         4.1739   -2.0373   -3.6828 O.3       1 ACP         0.4672
     13 O5'         3.2883    0.1336   -2.8242 O.3       1 ACP         0.1618
     14 C5'         2.2816   -0.2918   -1.9206 C.3       1 ACP         0.1504
     15 C4'         2.7248    0.0226   -0.4980 C.3       1 ACP         0.1111
     16 O4'         2.4697    1.4219   -0.2462 O.3       1 ACP        -0.1436
     17 C3'         1.9404   -0.7419    0.5596 C.3       1 ACP         0.1111
     18 O3'         2.7418   -0.8086    1.7389 O.3       1 ACP        -0.2728
     19 C2'         0.7477    0.1630    0.7858 C.3       1 ACP         0.1111
     20 O2'         0.1373   -0.0577    2.0407 O.3       1 ACP        -0.2728
     21 C1'         1.3733    1.5427    0.6747 C.3       1 ACP         0.2693
     22 N9          0.4520    2.5240    0.1767 N.pl3     1 ACP        -0.3222
     23 C8         -0.7463    2.2774   -0.7501 C.ar      1 ACP         0.1640
     24 N7         -1.3714    3.4419   -0.9948 N.2       1 ACP        -0.1640
     25 C5         -0.6104    4.3223   -0.2723 C.ar      1 ACP         0.0820
     26 C6         -0.9062    5.7820   -0.2194 C.ar      1 ACP         0.1640
     27 N6         -1.9385    6.2713   -0.8881 N.pl3     1 ACP        -0.4916
     28 N1         -0.0613    6.4906    0.5336 N.pl3     1 ACP        -0.4390
     29 C2          1.0416    5.8662    1.2291 C.ar      1 ACP         0.5691
     30 N3          1.3146    4.5989    1.1954 N.ar      1 ACP        -0.4283
     31 C4          0.4541    3.8697    0.4273 C.ar      1 ACP         0.2226
     32 HOG3        8.5754   -4.2495   -2.3939 H         1 ACP         0.2010
     33 H3B1        4.1267   -4.4669   -2.4126 H         1 ACP        -0.0393
     34 H3B2        5.2511   -5.4245   -3.3805 H         1 ACP        -0.0393
     35 H5'1        1.3500    0.2325   -2.1560 H         1 ACP        -0.0393
     36 H5'2        2.1267   -1.3683   -2.0444 H         1 ACP        -0.0393
     37 H4'         3.8046   -0.1390   -0.4011 H         1 ACP        -0.0393
     38 H3'         1.6787   -1.7627    0.2719 H         1 ACP        -0.0393
     39 HO3'        2.2231   -1.2979    2.3952 H         1 ACP         0.2010
     40 H2'         0.0002   -0.0084   -0.0014 H         1 ACP        -0.0393
     41 HO2'       -0.1554   -0.9852    2.0577 H         1 ACP         0.2010
     42 H1'         1.7718    1.9211    1.6015 H         1 ACP        -0.0393
     43 H8         -1.1244    1.3534   -1.1987 H         1 ACP         0.0000
     44 HN61       -2.5259    5.6573   -1.4336 H         1 ACP         0.2048
     45 HN62       -2.1416    7.2600   -0.8539 H         1 ACP         0.2048
     46 H2          1.6509    6.5764    1.8088 H         1 ACP        -0.1292
     47 H47        -0.2190    7.4917    0.6033 H         1 ACP         0.2048
@<TRIPOS>BOND
     1    1    2 2
     2    1    3 1
     3    1    4 1
     4    1    8 1
     5    4   32 1
     6    5    6 2
     7    5    7 1
     8    5    8 1
     9    5   12 1
    10    8   33 1
    11    8   34 1
    12    9   10 2
    13    9   11 1
    14    9   12 1
    15    9   13 1
    16   13   14 1
    17   14   15 1
    18   14   35 1
    19   14   36 1
    20   15   16 1
    21   15   17 1
    22   15   37 1
    23   16   21 1
    24   17   18 1
    25   17   19 1
    26   17   38 1
    27   18   39 1
    28   19   20 1
    29   19   21 1
    30   19   40 1
    31   20   41 1
    32   21   22 1
    33   21   42 1
    34   22   23 ar
    35   22   31 ar
    36   23   24 ar
    37   23   43 1
    38   24   25 ar
    39   25   26 ar
    40   25   31 ar
    41   26   27 1
    42   26   28 ar
    43   27   44 1
    44   27   45 1
    45   28   29 ar
    46   28   47 1
    47   29   30 ar
    48   29   46 1
    49   30   31 ar
@<TRIPOS>SUBSTRUCTURE
     1 ACP         1 GROUP 0 A     ****
@<TRIPOS>MOLECULE
[[5-(6-amino-1,8-dihydropurine-6,8-diylium-7-id-9-yl)-3,4-dihydroxy-tetrahydrofuran-2-yl]methoxy-oxido-phosphoryl]oxy-[[hydroxy(oxido)phosphoryl]methyl]phosphinate
   47    49     1     0     0
SMALL
USER_CHARGES

@<TRIPOS>ATOM
      1 PG          1.1453   -8.2654    0.6962 P.3       1 ACP        -1.2804
      2 O1G         2.2475   -8.6532   -0.2616 O.co2     1 ACP         0.3195
      3 O2G         0.3477   -6.9924    0.5303 O.co2     1 ACP         0.3195
      4 O3G         0.1233   -9.5224    0.8838 O.3       1 ACP         0.0326
      5 PB          0.8862   -7.8278    3.9082 P.3       1 ACP        -1.2804
      6 O1B         1.8198   -7.9248    5.0920 O.co2     1 ACP         0.3195
      7 O2B        -0.4069   -8.6070    3.8375 O.co2     1 ACP         0.3195
      8 C3B         1.8640   -8.2484    2.3978 C.3       1 ACP         0.8942
      9 PA         -0.0671   -5.0728    4.4633 P.3       1 ACP        -1.1062
     10 O1A         0.8700   -4.7631    5.6103 O.co2     1 ACP         0.3195
     11 O2A        -1.5164   -5.4219    4.7247 O.co2     1 ACP         0.3195
     12 O3A         0.5967   -6.2612    3.5612 O.3       1 ACP         0.4672
     13 O5'         0.0099   -3.8403    3.3910 O.3       1 ACP         0.1618
     14 C5'        -0.7840   -3.8935    2.2172 C.3       1 ACP         0.1504
     15 C4'        -0.0724   -3.1466    1.1027 C.3       1 ACP         0.1111
     16 O4'        -0.8674   -3.1929   -0.0945 O.3       1 ACP        -0.1436
     17 C3'         0.1338   -1.6715    1.4027 C.3       1 ACP         0.1111
     18 O3'         1.2893   -1.4445    2.1808 O.3       1 ACP        -0.2728
     19 C2'         0.2158   -1.0724    0.0128 C.3       1 ACP         0.1111
     20 O2'         1.5141   -1.2448   -0.5513 O.3       1 ACP        -0.2728
     21 C1'        -0.7897   -1.9176   -0.7583 C.3       1 ACP         0.2693
     22 N9         -2.1040   -1.3333   -0.7704 N.pl3     1 ACP        -0.3222
     23 C8         -3.2124   -1.5345    0.2719 C.ar      1 ACP         0.1640
     24 N7         -4.2964   -0.8234   -0.0828 N.2       1 ACP        -0.1640
     25 C5         -3.8754   -0.2386   -1.2478 C.ar      1 ACP         0.0820
     26 C6         -4.7432    0.6719   -2.0470 C.ar      1 ACP         0.1640
     27 N6         -5.9725    0.9415   -1.6366 N.pl3     1 ACP        -0.4916
     28 N1         -4.1703    1.1517   -3.1536 N.pl3     1 ACP        -0.4390
     29 C2         -2.8174    0.7994   -3.5215 C.ar      1 ACP         0.5691
     30 N3         -2.0475    0.0097   -2.8393 N.ar      1 ACP        -0.4283
     31 C4         -2.6278   -0.4836   -1.7071 C.ar      1 ACP         0.2226
     32 HOG3       -0.3417   -9.8693    0.0928 H         1 ACP         0.2010
     33 H3B1        2.7037   -7.5454    2.3653 H         1 ACP        -0.0393
     34 H3B2        2.2795   -9.2471    2.5722 H         1 ACP        -0.0393
     35 H5'1       -0.9358   -4.9414    1.9395 H         1 ACP        -0.0393
     36 H5'2       -1.7558   -3.4349    2.4258 H         1 ACP        -0.0393
     37 H4'         0.8883   -3.6447    0.8783 H         1 ACP        -0.0393
     38 H3'        -0.7368   -1.2359    1.9871 H         1 ACP        -0.0393
     39 HO3'        1.1625   -1.9325    3.0084 H         1 ACP         0.2010
     40 H2'        -0.0343   -0.0280    0.0196 H         1 ACP        -0.0393
     41 HO2'        2.1443   -0.7955    0.0378 H         1 ACP         0.2010
     42 H1'        -0.5175   -2.1046   -1.7826 H         1 ACP        -0.0393
     43 H8         -3.2310   -2.1319    1.1889 H         1 ACP         0.0000
     44 HN61       -6.3230    0.5316   -0.7829 H         1 ACP         0.2048
     45 HN62       -6.5628    1.5584   -2.1760 H         1 ACP         0.2048
     46 H2         -2.4822    1.2710   -4.4579 H         1 ACP        -0.1292
     47 H47        -4.7200    1.7780   -3.7346 H         1 ACP         0.2048
@<TRIPOS>BOND
     1    1    2 2
     2    1    3 1
     3    1    4 1
     4    1    8 1
     5    4   32 1
     6    5    6 2
     7    5    7 1
     8    5    8 1
     9    5   12 1
    10    8   33 1
    11    8   34 1
    12    9   10 2
    13    9   11 1
    14    9   12 1
    15    9   13 1
    16   13   14 1
    17   14   15 1
    18   14   35 1
    19   14   36 1
    20   15   16 1
    21   15   17 1
    22   15   37 1
    23   16   21 1
    24   17   18 1
    25   17   19 1
    26   17   38 1
    27   18   39 1
    28   19   20 1
    29   19   21 1
    30   19   40 1
    31   20   41 1
    32   21   22 1
    33   21   42 1
    34   22   23 ar
    35   22   31 ar
    36   23   24 ar
    37   23   43 1
    38   24   25 ar
    39   25   26 ar
    40   25   31 ar
    41   26   27 1
    42   26   28 ar
    43   27   44 1
    44   27   45 1
    45   28   29 ar
    46   28   47 1
    47   29   30 ar
    48   29   46 1
    49   30   31 ar
@<TRIPOS>SUBSTRUCTURE
     1 ACP         1 GROUP 0 A     ****
@<TRIPOS>MOLECULE
[[5-(6-amino-1,8-dihydropurine-6,8-diylium-7-id-9-yl)-3,4-dihydroxy-tetrahydrofuran-2-yl]methoxy-oxido-phosphoryl]oxy-[[hydroxy(oxido)phosphoryl]methyl]phosphinate
   47    49     1     0     0
SMALL
USER_CHARGES

@<TRIPOS>ATOM
      1 PG         -5.7440   -5.5419    3.4451 P.3       1 ACP        -1.2804
      2 O1G        -6.9190   -4.6568    3.7896 O.co2     1 ACP         0.3195
      3 O2G        -5.9238   -6.9334    2.8833 O.co2     1 ACP         0.3195
      4 O3G        -4.6971   -4.7128    2.5091 O.3       1 ACP         0.0326
      5 PB         -3.1345   -6.6798    5.0170 P.3       1 ACP        -1.2804
      6 O1B        -3.4969   -8.1111    4.6968 O.co2     1 ACP         0.3195
      7 O2B        -2.4086   -6.2986    6.2867 O.co2     1 ACP         0.3195
      8 C3B        -4.6929   -5.6889    4.9570 C.3       1 ACP         0.8942
      9 PA         -1.0048   -6.4109    2.9679 P.3       1 ACP        -1.1062
     10 O1A        -1.2176   -7.7423    2.2809 O.co2     1 ACP         0.3195
     11 O2A         0.1532   -6.2121    3.9218 O.co2     1 ACP         0.3195
     12 O3A        -2.3855   -6.0011    3.7378 O.3       1 ACP         0.4672
     13 O5'        -0.9728   -5.2427    1.8237 O.3       1 ACP         0.1618
     14 C5'        -0.7840   -3.8935    2.2172 C.3       1 ACP         0.1504
     15 C4'        -0.0724   -3.1466    1.1027 C.3       1 ACP         0.1111
     16 O4'        -0.8674   -3.1929   -0.0945 O.3       1 ACP        -0.1436
     17 C3'         0.1338   -1.6715    1.4027 C.3       1 ACP         0.1111
     18 O3'         1.2893   -1.4445    2.1808 O.3       1 ACP        -0.2728
     19 C2'         0.2158   -1.0724    0.0128 C.3       1 ACP         0.1111
     20 O2'         1.5141   -1.2448   -0.5513 O.3       1 ACP        -0.2728
     21 C1'        -0.7897   -1.9176   -0.7583 C.3       1 ACP         0.2693
     22 N9         -2.1040   -1.3333   -0.7704 N.pl3     1 ACP        -0.3222
     23 C8         -3.2124   -1.5345    0.2719 C.ar      1 ACP         0.1640
     24 N7         -4.2964   -0.8234   -0.0828 N.2       1 ACP        -0.1640
     25 C5         -3.8754   -0.2386   -1.2478 C.ar      1 ACP         0.0820
     26 C6         -4.7432    0.6719   -2.0470 C.ar      1 ACP         0.1640
     27 N6         -5.9725    0.9415   -1.6366 N.pl3     1 ACP        -0.4916
     28 N1         -4.1703    1.1517   -3.1536 N.pl3     1 ACP        -0.4390
     29 C2         -2.8174    0.7994   -3.5215 C.ar      1 ACP         0.5691
     30 N3         -2.0475    0.0097   -2.8393 N.ar      1 ACP        -0.4283
     31 C4         -2.6278   -0.4836   -1.7071 C.ar      1 ACP         0.2226
     32 HOG3       -5.0127   -4.3674    1.6469 H         1 ACP         0.2010
     33 H3B1       -5.3451   -6.0872    5.7421 H         1 ACP        -0.0393
     34 H3B2       -4.4169   -4.6690    5.2468 H         1 ACP        -0.0393
     35 H5'1       -1.7614   -3.4427    2.4167 H         1 ACP        -0.0393
     36 H5'2       -0.1870   -3.8723    3.1344 H         1 ACP        -0.0393
     37 H4'         0.8883   -3.6447    0.8783 H         1 ACP        -0.0393
     38 H3'        -0.7368   -1.2359    1.9871 H         1 ACP        -0.0393
     39 HO3'        1.1625   -1.9325    3.0084 H         1 ACP         0.2010
     40 H2'        -0.0343   -0.0280    0.0196 H         1 ACP        -0.0393
     41 HO2'        2.1443   -0.7955    0.0378 H         1 ACP         0.2010
     42 H1'        -0.5175   -2.1046   -1.7826 H         1 ACP        -0.0393
     43 H8         -3.2310   -2.1319    1.1889 H         1 ACP         0.0000
     44 HN61       -6.3230    0.5316   -0.7829 H         1 ACP         0.2048
     45 HN62       -6.5628    1.5584   -2.1760 H         1 ACP         0.2048
     46 H2         -2.4822    1.2710   -4.4579 H         1 ACP        -0.1292
     47 H47        -4.7200    1.7780   -3.7346 H         1 ACP         0.2048
@<TRIPOS>BOND
     1    1    2 2
     2    1    3 1
     3    1    4 1
     4    1    8 1
     5    4   32 1
     6    5    6 2
     7    5    7 1
     8    5    8 1
     9    5   12 1
    10    8   33 1
    11    8   34 1
    12    9   10 2
    13    9   11 1
    14    9   12 1
    15    9   13 1
    16   13   14 1
    17   14   15 1
    18   14   35 1
    19   14   36 1
    20   15   16 1
    21   15   17 1
    22   15   37 1
    23   16   21 1
    24   17   18 1
    25   17   19 1
    26   17   38 1
    27   18   39 1
    28   19   20 1
    29   19   21 1
    30   19   40 1
    31   20   41 1
    32   21   22 1
    33   21   42 1
    34   22   23 ar
    35   22   31 ar
    36   23   24 ar
    37   23   43 1
    38   24   25 ar
    39   25   26 ar
    40   25   31 ar
    41   26   27 1
    42   26   28 ar
    43   27   44 1
    44   27   45 1
    45   28   29 ar
    46   28   47 1
    47   29   30 ar
    48   29   46 1
    49   30   31 ar
@<TRIPOS>SUBSTRUCTURE
     1 ACP         1 GROUP 0 A     ****
@<TRIPOS>MOLECULE
[[5-(6-amino-1,8-dihydropurine-6,8-diylium-7-id-9-yl)-3,4-dihydroxy-tetrahydrofuran-2-yl]methoxy-oxido-phosphoryl]oxy-[[hydroxy(oxido)phosphoryl]methyl]phosphinate
   47    49     1     0     0
SMALL
USER_CHARGES

@<TRIPOS>ATOM
      1 PG         -0.6751   -1.0893    6.7945 P.3       1 ACP        -1.2804
      2 O1G         0.5617   -0.6556    7.5463 O.co2     1 ACP         0.3195
      3 O2G        -1.9913   -0.3575    6.9227 O.co2     1 ACP         0.3195
      4 O3G        -0.3121   -1.2750    5.2154 O.3       1 ACP         0.0326
      5 PB         -2.4020   -3.8311    6.5190 P.3       1 ACP        -1.2804
      6 O1B        -3.6745   -3.1381    6.9470 O.co2     1 ACP         0.3195
      7 O2B        -2.1385   -5.2881    6.8221 O.co2     1 ACP         0.3195
      8 C3B        -0.9872   -2.8624    7.2077 C.3       1 ACP         0.8942
      9 PA         -3.0181   -3.8920    3.6167 P.3       1 ACP        -1.1062
     10 O1A        -4.2799   -3.0579    3.6615 O.co2     1 ACP         0.3195
     11 O2A        -3.0933   -5.3964    3.4696 O.co2     1 ACP         0.3195
     12 O3A        -2.1234   -3.5455    4.9382 O.3       1 ACP         0.4672
     13 O5'        -2.0403   -3.2809    2.4568 O.3       1 ACP         0.1618
     14 C5'        -0.7840   -3.8935    2.2172 C.3       1 ACP         0.1504
     15 C4'        -0.0724   -3.1466    1.1027 C.3       1 ACP         0.1111
     16 O4'        -0.8674   -3.1929   -0.0945 O.3       1 ACP        -0.1436
     17 C3'         0.1338   -1.6715    1.4027 C.3       1 ACP         0.1111
     18 O3'         1.2893   -1.4445    2.1808 O.3       1 ACP        -0.2728
     19 C2'         0.2158   -1.0724    0.0128 C.3       1 ACP         0.1111
     20 O2'         1.5141   -1.2448   -0.5513 O.3       1 ACP        -0.2728
     21 C1'        -0.7897   -1.9176   -0.7583 C.3       1 ACP         0.2693
     22 N9         -2.1040   -1.3333   -0.7704 N.pl3     1 ACP        -0.3222
     23 C8         -3.3877   -1.9383   -0.1859 C.ar      1 ACP         0.1640
     24 N7         -4.4144   -1.0952   -0.3898 N.2       1 ACP        -0.1640
     25 C5         -3.7988   -0.0622   -1.0459 C.ar      1 ACP         0.0820
     26 C6         -4.5350    1.1514   -1.4997 C.ar      1 ACP         0.1640
     27 N6         -5.8347    1.2592   -1.2722 N.pl3     1 ACP        -0.4916
     28 N1         -3.7771    2.0576   -2.1221 N.pl3     1 ACP        -0.4390
     29 C2         -2.3607    1.8514   -2.3252 C.ar      1 ACP         0.5691
     30 N3         -1.7031    0.8030   -1.9377 N.ar      1 ACP        -0.4283
     31 C4         -2.4728   -0.1265   -1.3008 C.ar      1 ACP         0.2226
     32 HOG3        0.0248   -0.4992    4.7185 H         1 ACP         0.2010
     33 H3B1       -1.0811   -2.9076    8.2984 H         1 ACP        -0.0393
     34 H3B2       -0.0798   -3.4121    6.9342 H         1 ACP        -0.0393
     35 H5'1       -0.1929   -3.8610    3.1379 H         1 ACP        -0.0393
     36 H5'2       -0.9476   -4.9382    1.9344 H         1 ACP        -0.0393
     37 H4'         0.8883   -3.6447    0.8783 H         1 ACP        -0.0393
     38 H3'        -0.7368   -1.2359    1.9871 H         1 ACP        -0.0393
     39 HO3'        1.1625   -1.9325    3.0084 H         1 ACP         0.2010
     40 H2'        -0.0343   -0.0280    0.0196 H         1 ACP        -0.0393
     41 HO2'        2.1443   -0.7955    0.0378 H         1 ACP         0.2010
     42 H1'        -0.5175   -2.1046   -1.7826 H         1 ACP        -0.0393
     43 H8         -3.5590   -2.8873    0.3318 H         1 ACP         0.0000
     44 HN61       -6.3278    0.5206   -0.7915 H         1 ACP         0.2048
     45 HN62       -6.3361    2.0806   -1.5783 H         1 ACP         0.2048
     46 H2         -1.8692    2.6833   -2.8525 H         1 ACP        -0.1292
     47 H47        -4.2310    2.9046   -2.4517 H         1 ACP         0.2048
@<TRIPOS>BOND
     1    1    2 2
     2    1    3 1
     3    1    4 1
     4    1    8 1
     5    4   32 1
     6    5    6 2
     7    5    7 1
     8    5    8 1
     9    5   12 1
    10    8   33 1
    11    8   34 1
    12    9   10 2
    13    9   11 1
    14    9   12 1
    15    9   13 1
    16   13   14 1
    17   14   15 1
    18   14   35 1
    19   14   36 1
    20   15   16 1
    21   15   17 1
    22   15   37 1
    23   16   21 1
    24   17   18 1
    25   17   19 1
    26   17   38 1
    27   18   39 1
    28   19   20 1
    29   19   21 1
    30   19   40 1
    31   20   41 1
    32   21   22 1
    33   21   42 1
    34   22   23 ar
    35   22   31 ar
    36   23   24 ar
    37   23   43 1
    38   24   25 ar
    39   25   26 ar
    40   25   31 ar
    41   26   27 1
    42   26   28 ar
    43   27   44 1
    44   27   45 1
    45   28   29 ar
    46   28   47 1
    47   29   30 ar
    48   29   46 1
    49   30   31 ar
@<TRIPOS>SUBSTRUCTURE
     1 ACP         1 GROUP 0 A     ****
@<TRIPOS>MOLECULE
[[5-(6-amino-1,8-dihydropurine-6,8-diylium-7-id-9-yl)-3,4-dihydroxy-tetrahydrofuran-2-yl]methoxy-oxido-phosphoryl]oxy-[[hydroxy(oxido)phosphoryl]methyl]phosphinate
   47    49     1     0     0
SMALL
USER_CHARGES

@<TRIPOS>ATOM
      1 PG         -0.1550   -2.7412   -5.5555 P.3       1 ACP        -1.2804
      2 O1G        -1.5053   -2.5771   -6.2133 O.co2     1 ACP         0.3195
      3 O2G         0.1001   -2.3166   -4.1277 O.co2     1 ACP         0.3195
      4 O3G         0.3673   -4.2719   -5.7652 O.3       1 ACP         0.0326
      5 PB          2.8931   -1.8182   -6.2129 P.3       1 ACP        -1.2804
      6 O1B         3.5735   -1.0368   -7.3125 O.co2     1 ACP         0.3195
      7 O2B         3.3217   -3.2181   -5.8373 O.co2     1 ACP         0.3195
      8 C3B         1.0913   -1.8853   -6.6168 C.3       1 ACP         0.8942
      9 PA          3.9534   -0.2075   -3.9573 P.3       1 ACP        -1.1062
     10 O1A         4.6225    0.8729   -4.7788 O.co2     1 ACP         0.3195
     11 O2A         4.7732   -1.3027   -3.3100 O.co2     1 ACP         0.3195
     12 O3A         2.7896   -0.9020   -4.8683 O.3       1 ACP         0.4672
     13 O5'         3.0198    0.5138   -2.8245 O.3       1 ACP         0.1618
     14 C5'         2.2816   -0.2918   -1.9206 C.3       1 ACP         0.1504
     15 C4'         2.7248    0.0226   -0.4980 C.3       1 ACP         0.1111
     16 O4'         2.4697    1.4219   -0.2462 O.3       1 ACP        -0.1436
     17 C3'         1.9404   -0.7419    0.5596 C.3       1 ACP         0.1111
     18 O3'         2.7418   -0.8086    1.7389 O.3       1 ACP        -0.2728
     19 C2'         0.7477    0.1630    0.7858 C.3       1 ACP         0.1111
     20 O2'         0.1373   -0.0577    2.0407 O.3       1 ACP        -0.2728
     21 C1'         1.3733    1.5427    0.6747 C.3       1 ACP         0.2693
     22 N9          0.4520    2.5240    0.1767 N.pl3     1 ACP        -0.3222
     23 C8         -1.0660    2.5608    0.3999 C.ar      1 ACP         0.1640
     24 N7         -1.5852    3.6333   -0.2221 N.2       1 ACP        -0.1640
     25 C5         -0.4682    4.1996   -0.7771 C.ar      1 ACP         0.0820
     26 C6         -0.5216    5.4476   -1.5899 C.ar      1 ACP         0.1640
     27 N6         -1.6813    6.0510   -1.7982 N.pl3     1 ACP        -0.4916
     28 N1          0.6621    5.8575   -2.0523 N.pl3     1 ACP        -0.4390
     29 C2          1.8795    5.1301   -1.7717 C.ar      1 ACP         0.5691
     30 N3          1.9458    4.0434   -1.0670 N.ar      1 ACP        -0.4283
     31 C4          0.7388    3.6199   -0.5917 C.ar      1 ACP         0.2226
     32 HOG3       -0.1772   -5.0052   -5.4074 H         1 ACP         0.2010
     33 H3B1        0.7533   -0.8467   -6.7039 H         1 ACP        -0.0393
     34 H3B2        1.0187   -2.3378   -7.6120 H         1 ACP        -0.0393
     35 H5'1        1.2153   -0.0781   -2.0454 H         1 ACP        -0.0393
     36 H5'2        2.4645   -1.3454   -2.1547 H         1 ACP        -0.0393
     37 H4'         3.8046   -0.1390   -0.4011 H         1 ACP        -0.0393
     38 H3'         1.6787   -1.7627    0.2719 H         1 ACP        -0.0393
     39 HO3'        2.2231   -1.2979    2.3952 H         1 ACP         0.2010
     40 H2'         0.0002   -0.0084   -0.0014 H         1 ACP        -0.0393
     41 HO2'       -0.1554   -0.9852    2.0577 H         1 ACP         0.2010
     42 H1'         1.7718    1.9211    1.6015 H         1 ACP        -0.0393
     43 H8         -1.7235    1.8833    0.9537 H         1 ACP         0.0000
     44 HN61       -2.5296    5.6672   -1.4072 H         1 ACP         0.2048
     45 HN62       -1.7205    6.8969   -2.3483 H         1 ACP         0.2048
     46 H2          2.7750    5.5878   -2.2190 H         1 ACP        -0.1292
     47 H47         0.6808    6.7046   -2.6128 H         1 ACP         0.2048
@<TRIPOS>BOND
     1    1    2 2
     2    1    3 1
     3    1    4 1
     4    1    8 1
     5    4   32 1
     6    5    6 2
     7    5    7 1
     8    5    8 1
     9    5   12 1
    10    8   33 1
    11    8   34 1
    12    9   10 2
    13    9   11 1
    14    9   12 1
    15    9   13 1
    16   13   14 1
    17   14   15 1
    18   14   35 1
    19   14   36 1
    20   15   16 1
    21   15   17 1
    22   15   37 1
    23   16   21 1
    24   17   18 1
    25   17   19 1
    26   17   38 1
    27   18   39 1
    28   19   20 1
    29   19   21 1
    30   19   40 1
    31   20   41 1
    32   21   22 1
    33   21   42 1
    34   22   23 ar
    35   22   31 ar
    36   23   24 ar
    37   23   43 1
    38   24   25 ar
    39   25   26 ar
    40   25   31 ar
    41   26   27 1
    42   26   28 ar
    43   27   44 1
    44   27   45 1
    45   28   29 ar
    46   28   47 1
    47   29   30 ar
    48   29   46 1
    49   30   31 ar
@<TRIPOS>SUBSTRUCTURE
     1 ACP         1 GROUP 0 A     ****
@<TRIPOS>MOLECULE
[[5-(6-amino-1,8-dihydropurine-6,8-diylium-7-id-9-yl)-3,4-dihydroxy-tetrahydrofuran-2-yl]methoxy-oxido-phosphoryl]oxy-[[hydroxy(oxido)phosphoryl]methyl]phosphinate
   47    49     1     0     0
SMALL
USER_CHARGES

@<TRIPOS>ATOM
      1 PG          4.3280    1.5837   -5.6043 P.3       1 ACP        -1.2804
      2 O1G         4.7787    2.1868   -4.2944 O.co2     1 ACP         0.3195
      3 O2G         2.8665    1.4232   -5.9544 O.co2     1 ACP         0.3195
      4 O3G         5.1001    2.3236   -6.8357 O.3       1 ACP         0.0326
      5 PB          4.8472   -1.4445   -4.5386 P.3       1 ACP        -1.2804
      6 O1B         5.3187   -0.9488   -3.1915 O.co2     1 ACP         0.3195
      7 O2B         5.3827   -2.7133   -5.1613 O.co2     1 ACP         0.3195
      8 C3B         5.1171   -0.0797   -5.7546 C.3       1 ACP         0.8942
      9 PA          2.1362   -2.2698   -3.6575 P.3       1 ACP        -1.1062
     10 O1A         2.4953   -3.7397   -3.6734 O.co2     1 ACP         0.3195
     11 O2A         0.7453   -1.8118   -4.0395 O.co2     1 ACP         0.3195
     12 O3A         3.2175   -1.4646   -4.5792 O.3       1 ACP         0.4672
     13 O5'         2.5237   -1.6631   -2.1889 O.3       1 ACP         0.1618
     14 C5'         2.2816   -0.2918   -1.9206 C.3       1 ACP         0.1504
     15 C4'         2.7248    0.0226   -0.4980 C.3       1 ACP         0.1111
     16 O4'         2.4697    1.4219   -0.2462 O.3       1 ACP        -0.1436
     17 C3'         1.9404   -0.7419    0.5596 C.3       1 ACP         0.1111
     18 O3'         2.7418   -0.8086    1.7389 O.3       1 ACP        -0.2728
     19 C2'         0.7477    0.1630    0.7858 C.3       1 ACP         0.1111
     20 O2'         0.1373   -0.0577    2.0407 O.3       1 ACP        -0.2728
     21 C1'         1.3733    1.5427    0.6747 C.3       1 ACP         0.2693
     22 N9          0.4520    2.5240    0.1767 N.pl3     1 ACP        -0.3222
     23 C8         -1.0247    2.3053   -0.1800 C.ar      1 ACP         0.1640
     24 N7         -1.5580    3.4612   -0.6116 N.2       1 ACP        -0.1640
     25 C5         -0.4873    4.3110   -0.5222 C.ar      1 ACP         0.0820
     26 C6         -0.5728    5.7505   -0.8981 C.ar      1 ACP         0.1640
     27 N6         -1.7163    6.2514   -1.3385 N.pl3     1 ACP        -0.4916
     28 N1          0.5667    6.4301   -0.7475 N.pl3     1 ACP        -0.4390
     29 C2          1.7697    5.7952   -0.2579 C.ar      1 ACP         0.5691
     30 N3          1.8633    4.5450    0.0742 N.ar      1 ACP        -0.4283
     31 C4          0.7014    3.8457   -0.0776 C.ar      1 ACP         0.2226
     32 HOG3        4.9798    3.2905   -6.9497 H         1 ACP         0.2010
     33 H3B1        6.1976    0.0991   -5.7865 H         1 ACP        -0.0393
     34 H3B2        4.8223   -0.4791   -6.7313 H         1 ACP        -0.0393
     35 H5'1        2.8429    0.3140   -2.6391 H         1 ACP        -0.0393
     36 H5'2        1.2125   -0.0906   -2.0420 H         1 ACP        -0.0393
     37 H4'         3.8046   -0.1390   -0.4011 H         1 ACP        -0.0393
     38 H3'         1.6787   -1.7627    0.2719 H         1 ACP        -0.0393
     39 HO3'        3.5553   -1.2733    1.4913 H         1 ACP         0.2010
     40 H2'         0.0002   -0.0084   -0.0014 H         1 ACP        -0.0393
     41 HO2'       -0.6132    0.5577    2.1063 H         1 ACP         0.2010
     42 H1'         1.7718    1.9211    1.6015 H         1 ACP        -0.0393
     43 H8         -1.6458    1.4054   -0.1318 H         1 ACP         0.0000
     44 HN61       -2.5307    5.6598   -1.4199 H         1 ACP         0.2048
     45 HN62       -1.7773    7.2266   -1.5938 H         1 ACP         0.2048
     46 H2          2.6279    6.4808   -0.1872 H         1 ACP        -0.1292
     47 H47         0.5621    7.4166   -0.9900 H         1 ACP         0.2048
@<TRIPOS>BOND
     1    1    2 2
     2    1    3 1
     3    1    4 1
     4    1    8 1
     5    4   32 1
     6    5    6 2
     7    5    7 1
     8    5    8 1
     9    5   12 1
    10    8   33 1
    11    8   34 1
    12    9   10 2
    13    9   11 1
    14    9   12 1
    15    9   13 1
    16   13   14 1
    17   14   15 1
    18   14   35 1
    19   14   36 1
    20   15   16 1
    21   15   17 1
    22   15   37 1
    23   16   21 1
    24   17   18 1
    25   17   19 1
    26   17   38 1
    27   18   39 1
    28   19   20 1
    29   19   21 1
    30   19   40 1
    31   20   41 1
    32   21   22 1
    33   21   42 1
    34   22   23 ar
    35   22   31 ar
    36   23   24 ar
    37   23   43 1
    38   24   25 ar
    39   25   26 ar
    40   25   31 ar
    41   26   27 1
    42   26   28 ar
    43   27   44 1
    44   27   45 1
    45   28   29 ar
    46   28   47 1
    47   29   30 ar
    48   29   46 1
    49   30   31 ar
@<TRIPOS>SUBSTRUCTURE
     1 ACP         1 GROUP 0 A     ****
@<TRIPOS>MOLECULE
[[5-(6-amino-1,8-dihydropurine-6,8-diylium-7-id-9-yl)-3,4-dihydroxy-tetrahydrofuran-2-yl]methoxy-oxido-phosphoryl]oxy-[[hydroxy(oxido)phosphoryl]methyl]phosphinate
   47    49     1     0     0
SMALL
USER_CHARGES

@<TRIPOS>ATOM
      1 PG          3.1037    3.3624   -5.4918 P.3       1 ACP        -1.2804
      2 O1G         4.5302    3.7144   -5.8439 O.co2     1 ACP         0.3195
      3 O2G         2.6114    3.3377   -4.0631 O.co2     1 ACP         0.3195
      4 O3G         2.0853    4.2572   -6.3985 O.3       1 ACP         0.0326
      5 PB          1.1037    0.8625   -6.0625 P.3       1 ACP        -1.2804
      6 O1B         1.2000   -0.4541   -6.7973 O.co2     1 ACP         0.3195
      7 O2B         0.0343    1.8830   -6.3775 O.co2     1 ACP         0.3195
      8 C3B         2.7373    1.7094   -6.2303 C.3       1 ACP         0.8942
      9 PA          0.1597   -0.2651   -3.4849 P.3       1 ACP        -1.1062
     10 O1A         0.3026   -1.7287   -3.8413 O.co2     1 ACP         0.3195
     11 O2A        -1.2014    0.3966   -3.4747 O.co2     1 ACP         0.3195
     12 O3A         1.1487    0.6008   -4.4539 O.3       1 ACP         0.4672
     13 O5'         0.8970   -0.0132   -2.0468 O.3       1 ACP         0.1618
     14 C5'         2.2816   -0.2918   -1.9206 C.3       1 ACP         0.1504
     15 C4'         2.7248    0.0226   -0.4980 C.3       1 ACP         0.1111
     16 O4'         2.4697    1.4219   -0.2462 O.3       1 ACP        -0.1436
     17 C3'         1.9404   -0.7419    0.5596 C.3       1 ACP         0.1111
     18 O3'         2.7418   -0.8086    1.7389 O.3       1 ACP        -0.2728
     19 C2'         0.7477    0.1630    0.7858 C.3       1 ACP         0.1111
     20 O2'         0.1373   -0.0577    2.0407 O.3       1 ACP        -0.2728
     21 C1'         1.3733    1.5427    0.6747 C.3       1 ACP         0.2693
     22 N9          0.4520    2.5240    0.1767 N.pl3     1 ACP        -0.3222
     23 C8          0.1798    2.8712   -1.2933 C.ar      1 ACP         0.1640
     24 N7         -0.7494    3.8400   -1.3610 N.2       1 ACP        -0.1640
     25 C5         -1.0173    4.0603   -0.0358 C.ar      1 ACP         0.0820
     26 C6         -2.0105    5.0717    0.4241 C.ar      1 ACP         0.1640
     27 N6         -2.6723    5.7982   -0.4628 N.pl3     1 ACP        -0.4916
     28 N1         -2.1445    5.1522    1.7502 N.pl3     1 ACP        -0.4390
     29 C2         -1.3755    4.3143    2.6426 C.ar      1 ACP         0.5691
     30 N3         -0.5075    3.4292    2.2616 N.ar      1 ACP        -0.4283
     31 C4         -0.3667    3.3425    0.9070 C.ar      1 ACP         0.2226
     32 HOG3        2.1286    5.2344   -6.3242 H         1 ACP         0.2010
     33 H3B1        3.4871    1.0223   -5.8225 H         1 ACP        -0.0393
     34 H3B2        2.9254    1.7983   -7.3060 H         1 ACP        -0.0393
     35 H5'1        2.4525   -1.3484   -2.1500 H         1 ACP        -0.0393
     36 H5'2        2.8335    0.3232   -2.6384 H         1 ACP        -0.0393
     37 H4'         3.8046   -0.1390   -0.4011 H         1 ACP        -0.0393
     38 H3'         1.6787   -1.7627    0.2719 H         1 ACP        -0.0393
     39 HO3'        2.2231   -1.2979    2.3952 H         1 ACP         0.2010
     40 H2'         0.0002   -0.0084   -0.0014 H         1 ACP        -0.0393
     41 HO2'       -0.6132    0.5577    2.1063 H         1 ACP         0.2010
     42 H1'         1.7718    1.9211    1.6015 H         1 ACP        -0.0393
     43 H8          0.6089    2.4651   -2.2147 H         1 ACP         0.0000
     44 HN61       -2.5055    5.6680   -1.4503 H         1 ACP         0.2048
     45 HN62       -3.3462    6.4841   -0.1542 H         1 ACP         0.2048
     46 H2         -1.5932    4.4937    3.7066 H         1 ACP        -0.1292
     47 H47        -2.8098    5.8270    2.1160 H         1 ACP         0.2048
@<TRIPOS>BOND
     1    1    2 2
     2    1    3 1
     3    1    4 1
     4    1    8 1
     5    4   32 1
     6    5    6 2
     7    5    7 1
     8    5    8 1
     9    5   12 1
    10    8   33 1
    11    8   34 1
    12    9   10 2
    13    9   11 1
    14    9   12 1
    15    9   13 1
    16   13   14 1
    17   14   15 1
    18   14   35 1
    19   14   36 1
    20   15   16 1
    21   15   17 1
    22   15   37 1
    23   16   21 1
    24   17   18 1
    25   17   19 1
    26   17   38 1
    27   18   39 1
    28   19   20 1
    29   19   21 1
    30   19   40 1
    31   20   41 1
    32   21   22 1
    33   21   42 1
    34   22   23 ar
    35   22   31 ar
    36   23   24 ar
    37   23   43 1
    38   24   25 ar
    39   25   26 ar
    40   25   31 ar
    41   26   27 1
    42   26   28 ar
    43   27   44 1
    44   27   45 1
    45   28   29 ar
    46   28   47 1
    47   29   30 ar
    48   29   46 1
    49   30   31 ar
@<TRIPOS>SUBSTRUCTURE
     1 ACP         1 GROUP 0 A     ****
@<TRIPOS>MOLECULE
[[5-(6-amino-1,8-dihydropurine-6,8-diylium-7-id-9-yl)-3,4-dihydroxy-tetrahydrofuran-2-yl]methoxy-oxido-phosphoryl]oxy-[[hydroxy(oxido)phosphoryl]methyl]phosphinate
   47    49     1     0     0
SMALL
USER_CHARGES

@<TRIPOS>ATOM
      1 PG          2.1988   -4.7529   -3.4704 P.3       1 ACP        -1.2804
      2 O1G         0.7932   -4.7690   -4.0245 O.co2     1 ACP         0.3195
      3 O2G         2.5830   -3.9064   -2.2788 O.co2     1 ACP         0.3195
      4 O3G         2.7040   -6.2848   -3.2300 O.3       1 ACP         0.0326
      5 PB          3.2293   -2.7193   -5.7894 P.3       1 ACP        -1.2804
      6 O1B         1.8608   -2.6650   -6.4274 O.co2     1 ACP         0.3195
      7 O2B         4.4994   -2.5848   -6.5976 O.co2     1 ACP         0.3195
      8 C3B         3.3397   -4.3087   -4.8536 C.3       1 ACP         0.8942
      9 PA          3.0653   -0.0868   -4.4294 P.3       1 ACP        -1.1062
     10 O1A         1.6188    0.2173   -4.7536 O.co2     1 ACP         0.3195
     11 O2A         4.1847    0.5906   -5.1901 O.co2     1 ACP         0.3195
     12 O3A         3.2848   -1.7027   -4.5160 O.3       1 ACP         0.4672
     13 O5'         3.2883    0.1336   -2.8242 O.3       1 ACP         0.1618
     14 C5'         2.2816   -0.2918   -1.9206 C.3       1 ACP         0.1504
     15 C4'         2.7248    0.0226   -0.4980 C.3       1 ACP         0.1111
     16 O4'         2.4697    1.4219   -0.2462 O.3       1 ACP        -0.1436
     17 C3'         1.9404   -0.7419    0.5596 C.3       1 ACP         0.1111
     18 O3'         2.7418   -0.8086    1.7389 O.3       1 ACP        -0.2728
     19 C2'         0.7477    0.1630    0.7858 C.3       1 ACP         0.1111
     20 O2'         0.1373   -0.0577    2.0407 O.3       1 ACP        -0.2728
     21 C1'         1.3733    1.5427    0.6747 C.3       1 ACP         0.2693
     22 N9          0.4520    2.5240    0.1767 N.pl3     1 ACP        -0.3222
     23 C8         -0.8593    2.9753    0.8343 C.ar      1 ACP         0.1640
     24 N7         -1.4458    3.9121    0.0693 N.2       1 ACP        -0.1640
     25 C5         -0.5581    4.0180   -0.9686 C.ar      1 ACP         0.0820
     26 C6         -0.7663    4.9543   -2.1092 C.ar      1 ACP         0.1640
     27 N6         -1.8429    5.7238   -2.1440 N.pl3     1 ACP        -0.4916
     28 N1          0.1993    4.9263   -3.0311 N.pl3     1 ACP        -0.4390
     29 C2          1.3416    4.0491   -2.9069 C.ar      1 ACP         0.5691
     30 N3          1.5401    3.2284   -1.9225 N.ar      1 ACP        -0.4283
     31 C4          0.5563    3.2529   -0.9772 C.ar      1 ACP         0.2226
     32 HOG3        2.1968   -6.8531   -2.6120 H         1 ACP         0.2010
     33 H3B1        3.2469   -5.1120   -5.5930 H         1 ACP        -0.0393
     34 H3B2        4.3563   -4.3533   -4.4476 H         1 ACP        -0.0393
     35 H5'1        1.3500    0.2325   -2.1560 H         1 ACP        -0.0393
     36 H5'2        2.1267   -1.3683   -2.0444 H         1 ACP        -0.0393
     37 H4'         3.8046   -0.1390   -0.4011 H         1 ACP        -0.0393
     38 H3'         1.6787   -1.7627    0.2719 H         1 ACP        -0.0393
     39 HO3'        2.2231   -1.2979    2.3952 H         1 ACP         0.2010
     40 H2'         0.0002   -0.0084   -0.0014 H         1 ACP        -0.0393
     41 HO2'       -0.1554   -0.9852    2.0577 H         1 ACP         0.2010
     42 H1'         1.7718    1.9211    1.6015 H         1 ACP        -0.0393
     43 H8         -1.3368    2.6590    1.7670 H         1 ACP         0.0000
     44 HN61       -2.5230    5.6776   -1.3990 H         1 ACP         0.2048
     45 HN62       -1.9865    6.3594   -2.9154 H         1 ACP         0.2048
     46 H2          2.0529    4.1368   -3.7423 H         1 ACP        -0.1292
     47 H47         0.1054    5.5465   -3.8301 H         1 ACP         0.2048
@<TRIPOS>BOND
     1    1    2 2
     2    1    3 1
     3    1    4 1
     4    1    8 1
     5    4   32 1
     6    5    6 2
     7    5    7 1
     8    5    8 1
     9    5   12 1
    10    8   33 1
    11    8   34 1
    12    9   10 2
    13    9   11 1
    14    9   12 1
    15    9   13 1
    16   13   14 1
    17   14   15 1
    18   14   35 1
    19   14   36 1
    20   15   16 1
    21   15   17 1
    22   15   37 1
    23   16   21 1
    24   17   18 1
    25   17   19 1
    26   17   38 1
    27   18   39 1
    28   19   20 1
    29   19   21 1
    30   19   40 1
    31   20   41 1
    32   21   22 1
    33   21   42 1
    34   22   23 ar
    35   22   31 ar
    36   23   24 ar
    37   23   43 1
    38   24   25 ar
    39   25   26 ar
    40   25   31 ar
    41   26   27 1
    42   26   28 ar
    43   27   44 1
    44   27   45 1
    45   28   29 ar
    46   28   47 1
    47   29   30 ar
    48   29   46 1
    49   30   31 ar
@<TRIPOS>SUBSTRUCTURE
     1 ACP         1 GROUP 0 A     ****
@<TRIPOS>MOLECULE
[[5-(6-amino-1,8-dihydropurine-6,8-diylium-7-id-9-yl)-3,4-dihydroxy-tetrahydrofuran-2-yl]methoxy-oxido-phosphoryl]oxy-[[hydroxy(oxido)phosphoryl]methyl]phosphinate
   47    49     1     0     0
SMALL
USER_CHARGES

@<TRIPOS>ATOM
      1 PG          3.5883    2.4930   -5.5049 P.3       1 ACP        -1.2804
      2 O1G         4.1232    1.4259   -6.4312 O.co2     1 ACP         0.3195
      3 O2G         3.6632    2.3629   -4.0010 O.co2     1 ACP         0.3195
      4 O3G         4.1815    3.9451   -5.9515 O.3       1 ACP         0.0326
      5 PB          0.5265    1.4603   -5.8713 P.3       1 ACP        -1.2804
      6 O1B         0.9524    0.3578   -6.8126 O.co2     1 ACP         0.3195
      7 O2B        -0.8182    2.1407   -5.9856 O.co2     1 ACP         0.3195
      8 C3B         1.8177    2.7799   -5.9464 C.3       1 ACP         0.8942
      9 PA          0.1597   -0.2651   -3.4849 P.3       1 ACP        -1.1062
     10 O1A         0.7024   -1.5470   -4.0782 O.co2     1 ACP         0.3195
     11 O2A        -1.3314   -0.0589   -3.3282 O.co2     1 ACP         0.3195
     12 O3A         0.7702    0.9929   -4.3285 O.3       1 ACP         0.4672
     13 O5'         0.8970   -0.0132   -2.0468 O.3       1 ACP         0.1618
     14 C5'         2.2816   -0.2918   -1.9206 C.3       1 ACP         0.1504
     15 C4'         2.7248    0.0226   -0.4980 C.3       1 ACP         0.1111
     16 O4'         2.4697    1.4219   -0.2462 O.3       1 ACP        -0.1436
     17 C3'         1.9404   -0.7419    0.5596 C.3       1 ACP         0.1111
     18 O3'         2.7418   -0.8086    1.7389 O.3       1 ACP        -0.2728
     19 C2'         0.7477    0.1630    0.7858 C.3       1 ACP         0.1111
     20 O2'         0.1373   -0.0577    2.0407 O.3       1 ACP        -0.2728
     21 C1'         1.3733    1.5427    0.6747 C.3       1 ACP         0.2693
     22 N9          0.4520    2.5240    0.1767 N.pl3     1 ACP        -0.3222
     23 C8          0.5793    3.3338   -1.1209 C.ar      1 ACP         0.1640
     24 N7         -0.4807    4.1508   -1.2458 N.2       1 ACP        -0.1640
     25 C5         -1.1921    3.8572   -0.1126 C.ar      1 ACP         0.0820
     26 C6         -2.4855    4.5203    0.2163 C.ar      1 ACP         0.1640
     27 N6         -2.9873    5.4319   -0.6020 N.pl3     1 ACP        -0.4916
     28 N1         -3.0414    4.1119    1.3596 N.pl3     1 ACP        -0.4390
     29 C2         -2.4169    3.1071    2.1904 C.ar      1 ACP         0.5691
     30 N3         -1.2928    2.5191    1.9210 N.ar      1 ACP        -0.4283
     31 C4         -0.7202    2.9326    0.7534 C.ar      1 ACP         0.2226
     32 HOG3        5.1539    4.0742   -5.9485 H         1 ACP         0.2010
     33 H3B1        1.8189    3.1556   -6.9756 H         1 ACP        -0.0393
     34 H3B2        1.4618    3.5914   -5.3020 H         1 ACP        -0.0393
     35 H5'1        2.4525   -1.3484   -2.1500 H         1 ACP        -0.0393
     36 H5'2        2.8335    0.3232   -2.6384 H         1 ACP        -0.0393
     37 H4'         3.8046   -0.1390   -0.4011 H         1 ACP        -0.0393
     38 H3'         1.6787   -1.7627    0.2719 H         1 ACP        -0.0393
     39 HO3'        2.2231   -1.2979    2.3952 H         1 ACP         0.2010
     40 H2'         0.0002   -0.0084   -0.0014 H         1 ACP        -0.0393
     41 HO2'       -0.1554   -0.9852    2.0577 H         1 ACP         0.2010
     42 H1'         1.7718    1.9211    1.6015 H         1 ACP        -0.0393
     43 H8          1.3565    3.3309   -1.8916 H         1 ACP         0.0000
     44 HN61       -2.4952    5.6785   -1.4487 H         1 ACP         0.2048
     45 HN62       -3.8637    5.8828   -0.3819 H         1 ACP         0.2048
     46 H2         -2.9911    2.8734    3.1000 H         1 ACP        -0.1292
     47 H47        -3.9253    4.5332    1.6302 H         1 ACP         0.2048
@<TRIPOS>BOND
     1    1    2 2
     2    1    3 1
     3    1    4 1
     4    1    8 1
     5    4   32 1
     6    5    6 2
     7    5    7 1
     8    5    8 1
     9    5   12 1
    10    8   33 1
    11    8   34 1
    12    9   10 2
    13    9   11 1
    14    9   12 1
    15    9   13 1
    16   13   14 1
    17   14   15 1
    18   14   35 1
    19   14   36 1
    20   15   16 1
    21   15   17 1
    22   15   37 1
    23   16   21 1
    24   17   18 1
    25   17   19 1
    26   17   38 1
    27   18   39 1
    28   19   20 1
    29   19   21 1
    30   19   40 1
    31   20   41 1
    32   21   22 1
    33   21   42 1
    34   22   23 ar
    35   22   31 ar
    36   23   24 ar
    37   23   43 1
    38   24   25 ar
    39   25   26 ar
    40   25   31 ar
    41   26   27 1
    42   26   28 ar
    43   27   44 1
    44   27   45 1
    45   28   29 ar
    46   28   47 1
    47   29   30 ar
    48   29   46 1
    49   30   31 ar
@<TRIPOS>SUBSTRUCTURE
     1 ACP         1 GROUP 0 A     ****
@<TRIPOS>MOLECULE
[[5-(6-amino-1,8-dihydropurine-6,8-diylium-7-id-9-yl)-3,4-dihydroxy-tetrahydrofuran-2-yl]methoxy-oxido-phosphoryl]oxy-[[hydroxy(oxido)phosphoryl]methyl]phosphinate
   47    49     1     0     0
SMALL
USER_CHARGES

@<TRIPOS>ATOM
      1 PG         -0.7696   -1.5853   -5.2862 P.3       1 ACP        -1.2804
      2 O1G         0.0739   -1.8441   -4.0597 O.co2     1 ACP         0.3195
      3 O2G        -1.5890   -2.6728   -5.9420 O.co2     1 ACP         0.3195
      4 O3G        -1.7120   -0.2792   -5.0299 O.3       1 ACP         0.0326
      5 PB          1.2661    0.7115   -6.3614 P.3       1 ACP        -1.2804
      6 O1B         0.2513    1.8037   -6.1166 O.co2     1 ACP         0.3195
      7 O2B         2.2826    0.7934   -7.4769 O.co2     1 ACP         0.3195
      8 C3B         0.3342   -0.8686   -6.5824 C.3       1 ACP         0.8942
      9 PA          2.9215    1.2532   -3.9587 P.3       1 ACP        -1.1062
     10 O1A         2.0230    2.2933   -3.3258 O.co2     1 ACP         0.3195
     11 O2A         4.1836    1.6642   -4.6857 O.co2     1 ACP         0.3195
     12 O3A         2.0199    0.3363   -4.9653 O.3       1 ACP         0.4672
     13 O5'         3.2883    0.1336   -2.8242 O.3       1 ACP         0.1618
     14 C5'         2.2816   -0.2918   -1.9206 C.3       1 ACP         0.1504
     15 C4'         2.7248    0.0226   -0.4980 C.3       1 ACP         0.1111
     16 O4'         2.4697    1.4219   -0.2462 O.3       1 ACP        -0.1436
     17 C3'         1.9404   -0.7419    0.5596 C.3       1 ACP         0.1111
     18 O3'         2.7418   -0.8086    1.7389 O.3       1 ACP        -0.2728
     19 C2'         0.7477    0.1630    0.7858 C.3       1 ACP         0.1111
     20 O2'         0.1373   -0.0577    2.0407 O.3       1 ACP        -0.2728
     21 C1'         1.3733    1.5427    0.6747 C.3       1 ACP         0.2693
     22 N9          0.4520    2.5240    0.1767 N.pl3     1 ACP        -0.3222
     23 C8         -1.0247    2.3053   -0.1800 C.ar      1 ACP         0.1640
     24 N7         -1.5580    3.4612   -0.6116 N.2       1 ACP        -0.1640
     25 C5         -0.4873    4.3110   -0.5222 C.ar      1 ACP         0.0820
     26 C6         -0.5728    5.7505   -0.8981 C.ar      1 ACP         0.1640
     27 N6         -1.7163    6.2514   -1.3385 N.pl3     1 ACP        -0.4916
     28 N1          0.5667    6.4301   -0.7475 N.pl3     1 ACP        -0.4390
     29 C2          1.7697    5.7952   -0.2579 C.ar      1 ACP         0.5691
     30 N3          1.8633    4.5450    0.0742 N.ar      1 ACP        -0.4283
     31 C4          0.7014    3.8457   -0.0776 C.ar      1 ACP         0.2226
     32 HOG3       -2.3509   -0.3021   -4.2859 H         1 ACP         0.2010
     33 H3B1       -0.2892   -0.7398   -7.4742 H         1 ACP        -0.0393
     34 H3B2        1.0831   -1.6341   -6.8142 H         1 ACP        -0.0393
     35 H5'1        1.3500    0.2325   -2.1560 H         1 ACP        -0.0393
     36 H5'2        2.1267   -1.3683   -2.0444 H         1 ACP        -0.0393
     37 H4'         3.8046   -0.1390   -0.4011 H         1 ACP        -0.0393
     38 H3'         1.6787   -1.7627    0.2719 H         1 ACP        -0.0393
     39 HO3'        2.2231   -1.2979    2.3952 H         1 ACP         0.2010
     40 H2'         0.0002   -0.0084   -0.0014 H         1 ACP        -0.0393
     41 HO2'       -0.6132    0.5577    2.1063 H         1 ACP         0.2010
     42 H1'         1.7718    1.9211    1.6015 H         1 ACP        -0.0393
     43 H8         -1.6458    1.4054   -0.1318 H         1 ACP         0.0000
     44 HN61       -2.5307    5.6598   -1.4199 H         1 ACP         0.2048
     45 HN62       -1.7773    7.2266   -1.5938 H         1 ACP         0.2048
     46 H2          2.6279    6.4808   -0.1872 H         1 ACP        -0.1292
     47 H47         0.5621    7.4166   -0.9900 H         1 ACP         0.2048
@<TRIPOS>BOND
     1    1    2 2
     2    1    3 1
     3    1    4 1
     4    1    8 1
     5    4   32 1
     6    5    6 2
     7    5    7 1
     8    5    8 1
     9    5   12 1
    10    8   33 1
    11    8   34 1
    12    9   10 2
    13    9   11 1
    14    9   12 1
    15    9   13 1
    16   13   14 1
    17   14   15 1
    18   14   35 1
    19   14   36 1
    20   15   16 1
    21   15   17 1
    22   15   37 1
    23   16   21 1
    24   17   18 1
    25   17   19 1
    26   17   38 1
    27   18   39 1
    28   19   20 1
    29   19   21 1
    30   19   40 1
    31   20   41 1
    32   21   22 1
    33   21   42 1
    34   22   23 ar
    35   22   31 ar
    36   23   24 ar
    37   23   43 1
    38   24   25 ar
    39   25   26 ar
    40   25   31 ar
    41   26   27 1
    42   26   28 ar
    43   27   44 1
    44   27   45 1
    45   28   29 ar
    46   28   47 1
    47   29   30 ar
    48   29   46 1
    49   30   31 ar
@<TRIPOS>SUBSTRUCTURE
     1 ACP         1 GROUP 0 A     ****
@<TRIPOS>MOLECULE
[[5-(6-amino-1,8-dihydropurine-6,8-diylium-7-id-9-yl)-3,4-dihydroxy-tetrahydrofuran-2-yl]methoxy-oxido-phosphoryl]oxy-[[hydroxy(oxido)phosphoryl]methyl]phosphinate
   47    49     1     0     0
SMALL
USER_CHARGES

@<TRIPOS>ATOM
      1 PG         -3.8578   -3.6429    5.9280 P.3       1 ACP        -1.2804
      2 O1G        -5.1202   -2.8279    6.0858 O.co2     1 ACP         0.3195
      3 O2G        -2.7089   -3.1848    5.0594 O.co2     1 ACP         0.3195
      4 O3G        -3.2907   -4.0541    7.4008 O.3       1 ACP         0.0326
      5 PB         -3.1345   -6.6798    5.0170 P.3       1 ACP        -1.2804
      6 O1B        -3.9189   -7.8901    4.5669 O.co2     1 ACP         0.3195
      7 O2B        -2.1833   -6.7286    6.1905 O.co2     1 ACP         0.3195
      8 C3B        -4.3487   -5.3274    5.3503 C.3       1 ACP         0.8942
      9 PA         -1.0048   -6.4109    2.9679 P.3       1 ACP        -1.1062
     10 O1A        -1.2176   -7.7423    2.2809 O.co2     1 ACP         0.3195
     11 O2A         0.1532   -6.2121    3.9218 O.co2     1 ACP         0.3195
     12 O3A        -2.3855   -6.0011    3.7378 O.3       1 ACP         0.4672
     13 O5'        -0.9728   -5.2427    1.8237 O.3       1 ACP         0.1618
     14 C5'        -0.7840   -3.8935    2.2172 C.3       1 ACP         0.1504
     15 C4'        -0.0724   -3.1466    1.1027 C.3       1 ACP         0.1111
     16 O4'        -0.8674   -3.1929   -0.0945 O.3       1 ACP        -0.1436
     17 C3'         0.1338   -1.6715    1.4027 C.3       1 ACP         0.1111
     18 O3'         1.2893   -1.4445    2.1808 O.3       1 ACP        -0.2728
     19 C2'         0.2158   -1.0724    0.0128 C.3       1 ACP         0.1111
     20 O2'         1.5141   -1.2448   -0.5513 O.3       1 ACP        -0.2728
     21 C1'        -0.7897   -1.9176   -0.7583 C.3       1 ACP         0.2693
     22 N9         -2.1040   -1.3333   -0.7704 N.pl3     1 ACP        -0.3222
     23 C8         -3.2124   -1.5345    0.2719 C.ar      1 ACP         0.1640
     24 N7         -4.2964   -0.8234   -0.0828 N.2       1 ACP        -0.1640
     25 C5         -3.8754   -0.2386   -1.2478 C.ar      1 ACP         0.0820
     26 C6         -4.7432    0.6719   -2.0470 C.ar      1 ACP         0.1640
     27 N6         -5.9725    0.9415   -1.6366 N.pl3     1 ACP        -0.4916
     28 N1         -4.1703    1.1517   -3.1536 N.pl3     1 ACP        -0.4390
     29 C2         -2.8174    0.7994   -3.5215 C.ar      1 ACP         0.5691
     30 N3         -2.0475    0.0097   -2.8393 N.ar      1 ACP        -0.4283
     31 C4         -2.6278   -0.4836   -1.7071 C.ar      1 ACP         0.2226
     32 HOG3       -3.0506   -3.3377    8.0264 H         1 ACP         0.2010
     33 H3B1       -4.9101   -5.1777    4.4214 H         1 ACP        -0.0393
     34 H3B2       -5.0480   -5.7226    6.0955 H         1 ACP        -0.0393
     35 H5'1       -1.7614   -3.4427    2.4167 H         1 ACP        -0.0393
     36 H5'2       -0.1870   -3.8723    3.1344 H         1 ACP        -0.0393
     37 H4'         0.8883   -3.6447    0.8783 H         1 ACP        -0.0393
     38 H3'        -0.7368   -1.2359    1.9871 H         1 ACP        -0.0393
     39 HO3'        1.3407   -0.4871    2.3218 H         1 ACP         0.2010
     40 H2'        -0.0343   -0.0280    0.0196 H         1 ACP        -0.0393
     41 HO2'        2.1443   -0.7955    0.0378 H         1 ACP         0.2010
     42 H1'        -0.5175   -2.1046   -1.7826 H         1 ACP        -0.0393
     43 H8         -3.2310   -2.1319    1.1889 H         1 ACP         0.0000
     44 HN61       -6.3230    0.5316   -0.7829 H         1 ACP         0.2048
     45 HN62       -6.5628    1.5584   -2.1760 H         1 ACP         0.2048
     46 H2         -2.4822    1.2710   -4.4579 H         1 ACP        -0.1292
     47 H47        -4.7200    1.7780   -3.7346 H         1 ACP         0.2048
@<TRIPOS>BOND
     1    1    2 2
     2    1    3 1
     3    1    4 1
     4    1    8 1
     5    4   32 1
     6    5    6 2
     7    5    7 1
     8    5    8 1
     9    5   12 1
    10    8   33 1
    11    8   34 1
    12    9   10 2
    13    9   11 1
    14    9   12 1
    15    9   13 1
    16   13   14 1
    17   14   15 1
    18   14   35 1
    19   14   36 1
    20   15   16 1
    21   15   17 1
    22   15   37 1
    23   16   21 1
    24   17   18 1
    25   17   19 1
    26   17   38 1
    27   18   39 1
    28   19   20 1
    29   19   21 1
    30   19   40 1
    31   20   41 1
    32   21   22 1
    33   21   42 1
    34   22   23 ar
    35   22   31 ar
    36   23   24 ar
    37   23   43 1
    38   24   25 ar
    39   25   26 ar
    40   25   31 ar
    41   26   27 1
    42   26   28 ar
    43   27   44 1
    44   27   45 1
    45   28   29 ar
    46   28   47 1
    47   29   30 ar
    48   29   46 1
    49   30   31 ar
@<TRIPOS>SUBSTRUCTURE
     1 ACP         1 GROUP 0 A     ****
@<TRIPOS>MOLECULE
[[5-(6-amino-1,8-dihydropurine-6,8-diylium-7-id-9-yl)-3,4-dihydroxy-tetrahydrofuran-2-yl]methoxy-oxido-phosphoryl]oxy-[[hydroxy(oxido)phosphoryl]methyl]phosphinate
   47    49     1     0     0
SMALL
USER_CHARGES

@<TRIPOS>ATOM
      1 PG          3.4777   -4.3859   -3.9499 P.3       1 ACP        -1.2804
      2 O1G         2.1066   -4.8065   -4.4254 O.co2     1 ACP         0.3195
      3 O2G         3.6770   -3.5689   -2.6942 O.co2     1 ACP         0.3195
      4 O3G         4.4598   -5.6873   -3.9091 O.3       1 ACP         0.0326
      5 PB          3.6071   -1.9329   -6.0810 P.3       1 ACP        -1.2804
      6 O1B         2.2415   -2.2678   -6.6338 O.co2     1 ACP         0.3195
      7 O2B         4.6943   -1.3247   -6.9368 O.co2     1 ACP         0.3195
      8 C3B         4.2949   -3.4771   -5.3350 C.3       1 ACP         0.8942
      9 PA          2.7389    0.3751   -4.4298 P.3       1 ACP        -1.1062
     10 O1A         1.2481    0.2227   -4.6393 O.co2     1 ACP         0.3195
     11 O2A         3.5164    1.4419   -5.1701 O.co2     1 ACP         0.3195
     12 O3A         3.4492   -1.0690   -4.7073 O.3       1 ACP         0.4672
     13 O5'         3.0198    0.5138   -2.8245 O.3       1 ACP         0.1618
     14 C5'         2.2816   -0.2918   -1.9206 C.3       1 ACP         0.1504
     15 C4'         2.7248    0.0226   -0.4980 C.3       1 ACP         0.1111
     16 O4'         2.4697    1.4219   -0.2462 O.3       1 ACP        -0.1436
     17 C3'         1.9404   -0.7419    0.5596 C.3       1 ACP         0.1111
     18 O3'         2.7418   -0.8086    1.7389 O.3       1 ACP        -0.2728
     19 C2'         0.7477    0.1630    0.7858 C.3       1 ACP         0.1111
     20 O2'         0.1373   -0.0577    2.0407 O.3       1 ACP        -0.2728
     21 C1'         1.3733    1.5427    0.6747 C.3       1 ACP         0.2693
     22 N9          0.4520    2.5240    0.1767 N.pl3     1 ACP        -0.3222
     23 C8         -0.7463    2.2774   -0.7501 C.ar      1 ACP         0.1640
     24 N7         -1.3714    3.4419   -0.9948 N.2       1 ACP        -0.1640
     25 C5         -0.6104    4.3223   -0.2723 C.ar      1 ACP         0.0820
     26 C6         -0.9062    5.7820   -0.2194 C.ar      1 ACP         0.1640
     27 N6         -1.9385    6.2713   -0.8881 N.pl3     1 ACP        -0.4916
     28 N1         -0.0613    6.4906    0.5336 N.pl3     1 ACP        -0.4390
     29 C2          1.0416    5.8662    1.2291 C.ar      1 ACP         0.5691
     30 N3          1.3146    4.5989    1.1954 N.ar      1 ACP        -0.4283
     31 C4          0.4541    3.8697    0.4273 C.ar      1 ACP         0.2226
     32 HOG3        4.2139   -6.4409   -3.3314 H         1 ACP         0.2010
     33 H3B1        4.3966   -4.1990   -6.1530 H         1 ACP        -0.0393
     34 H3B2        5.3048   -3.2263   -4.9922 H         1 ACP        -0.0393
     35 H5'1        1.2153   -0.0781   -2.0454 H         1 ACP        -0.0393
     36 H5'2        2.4645   -1.3454   -2.1547 H         1 ACP        -0.0393
     37 H4'         3.8046   -0.1390   -0.4011 H         1 ACP        -0.0393
     38 H3'         1.6787   -1.7627    0.2719 H         1 ACP        -0.0393
     39 HO3'        3.5553   -1.2733    1.4913 H         1 ACP         0.2010
     40 H2'         0.0002   -0.0084   -0.0014 H         1 ACP        -0.0393
     41 HO2'       -0.1554   -0.9852    2.0577 H         1 ACP         0.2010
     42 H1'         1.7718    1.9211    1.6015 H         1 ACP        -0.0393
     43 H8         -1.1244    1.3534   -1.1987 H         1 ACP         0.0000
     44 HN61       -2.5259    5.6573   -1.4336 H         1 ACP         0.2048
     45 HN62       -2.1416    7.2600   -0.8539 H         1 ACP         0.2048
     46 H2          1.6509    6.5764    1.8088 H         1 ACP        -0.1292
     47 H47        -0.2190    7.4917    0.6033 H         1 ACP         0.2048
@<TRIPOS>BOND
     1    1    2 2
     2    1    3 1
     3    1    4 1
     4    1    8 1
     5    4   32 1
     6    5    6 2
     7    5    7 1
     8    5    8 1
     9    5   12 1
    10    8   33 1
    11    8   34 1
    12    9   10 2
    13    9   11 1
    14    9   12 1
    15    9   13 1
    16   13   14 1
    17   14   15 1
    18   14   35 1
    19   14   36 1
    20   15   16 1
    21   15   17 1
    22   15   37 1
    23   16   21 1
    24   17   18 1
    25   17   19 1
    26   17   38 1
    27   18   39 1
    28   19   20 1
    29   19   21 1
    30   19   40 1
    31   20   41 1
    32   21   22 1
    33   21   42 1
    34   22   23 ar
    35   22   31 ar
    36   23   24 ar
    37   23   43 1
    38   24   25 ar
    39   25   26 ar
    40   25   31 ar
    41   26   27 1
    42   26   28 ar
    43   27   44 1
    44   27   45 1
    45   28   29 ar
    46   28   47 1
    47   29   30 ar
    48   29   46 1
    49   30   31 ar
@<TRIPOS>SUBSTRUCTURE
     1 ACP         1 GROUP 0 A     ****
@<TRIPOS>MOLECULE
[[5-(6-amino-1,8-dihydropurine-6,8-diylium-7-id-9-yl)-3,4-dihydroxy-tetrahydrofuran-2-yl]methoxy-oxido-phosphoryl]oxy-[[hydroxy(oxido)phosphoryl]methyl]phosphinate
   47    49     1     0     0
SMALL
USER_CHARGES

@<TRIPOS>ATOM
      1 PG          7.1924   -1.7006   -0.2693 P.3       1 ACP        -1.2804
      2 O1G         8.0702   -0.9242    0.6843 O.co2     1 ACP         0.3195
      3 O2G         7.3367   -3.1929   -0.4601 O.co2     1 ACP         0.3195
      4 O3G         5.6280   -1.3420    0.0204 O.3       1 ACP         0.0326
      5 PB          6.4451   -1.5235   -3.4293 P.3       1 ACP        -1.2804
      6 O1B         6.8833   -2.9493   -3.6696 O.co2     1 ACP         0.3195
      7 O2B         6.5651   -0.4552   -4.4916 O.co2     1 ACP         0.3195
      8 C3B         7.3435   -0.9143   -1.9340 C.3       1 ACP         0.8942
      9 PA          3.5286   -2.0718   -3.4129 P.3       1 ACP        -1.1062
     10 O1A         3.6075   -3.5816   -3.4780 O.co2     1 ACP         0.3195
     11 O2A         3.1762   -1.2645   -4.6435 O.co2     1 ACP         0.3195
     12 O3A         4.9372   -1.5072   -2.8095 O.3       1 ACP         0.4672
     13 O5'         2.5237   -1.6631   -2.1889 O.3       1 ACP         0.1618
     14 C5'         2.2816   -0.2918   -1.9206 C.3       1 ACP         0.1504
     15 C4'         2.7248    0.0226   -0.4980 C.3       1 ACP         0.1111
     16 O4'         2.4697    1.4219   -0.2462 O.3       1 ACP        -0.1436
     17 C3'         1.9404   -0.7419    0.5596 C.3       1 ACP         0.1111
     18 O3'         2.7418   -0.8086    1.7389 O.3       1 ACP        -0.2728
     19 C2'         0.7477    0.1630    0.7858 C.3       1 ACP         0.1111
     20 O2'         0.1373   -0.0577    2.0407 O.3       1 ACP        -0.2728
     21 C1'         1.3733    1.5427    0.6747 C.3       1 ACP         0.2693
     22 N9          0.4520    2.5240    0.1767 N.pl3     1 ACP        -0.3222
     23 C8          0.1798    2.8712   -1.2933 C.ar      1 ACP         0.1640
     24 N7         -0.7494    3.8400   -1.3610 N.2       1 ACP        -0.1640
     25 C5         -1.0173    4.0603   -0.0358 C.ar      1 ACP         0.0820
     26 C6         -2.0105    5.0717    0.4241 C.ar      1 ACP         0.1640
     27 N6         -2.6723    5.7982   -0.4628 N.pl3     1 ACP        -0.4916
     28 N1         -2.1445    5.1522    1.7502 N.pl3     1 ACP        -0.4390
     29 C2         -1.3755    4.3143    2.6426 C.ar      1 ACP         0.5691
     30 N3         -0.5075    3.4292    2.2616 N.ar      1 ACP        -0.4283
     31 C4         -0.3667    3.3425    0.9070 C.ar      1 ACP         0.2226
     32 HOG3        5.2616   -1.5318    0.9103 H         1 ACP         0.2010
     33 H3B1        8.4103   -0.9338   -2.1828 H         1 ACP        -0.0393
     34 H3B2        7.0548    0.1355   -1.8118 H         1 ACP        -0.0393
     35 H5'1        2.8429    0.3140   -2.6391 H         1 ACP        -0.0393
     36 H5'2        1.2125   -0.0906   -2.0420 H         1 ACP        -0.0393
     37 H4'         3.8046   -0.1390   -0.4011 H         1 ACP        -0.0393
     38 H3'         1.6787   -1.7627    0.2719 H         1 ACP        -0.0393
     39 HO3'        2.2231   -1.2979    2.3952 H         1 ACP         0.2010
     40 H2'         0.0002   -0.0084   -0.0014 H         1 ACP        -0.0393
     41 HO2'       -0.6132    0.5577    2.1063 H         1 ACP         0.2010
     42 H1'         1.7718    1.9211    1.6015 H         1 ACP        -0.0393
     43 H8          0.6089    2.4651   -2.2147 H         1 ACP         0.0000
     44 HN61       -2.5055    5.6680   -1.4503 H         1 ACP         0.2048
     45 HN62       -3.3462    6.4841   -0.1542 H         1 ACP         0.2048
     46 H2         -1.5932    4.4937    3.7066 H         1 ACP        -0.1292
     47 H47        -2.8098    5.8270    2.1160 H         1 ACP         0.2048
@<TRIPOS>BOND
     1    1    2 2
     2    1    3 1
     3    1    4 1
     4    1    8 1
     5    4   32 1
     6    5    6 2
     7    5    7 1
     8    5    8 1
     9    5   12 1
    10    8   33 1
    11    8   34 1
    12    9   10 2
    13    9   11 1
    14    9   12 1
    15    9   13 1
    16   13   14 1
    17   14   15 1
    18   14   35 1
    19   14   36 1
    20   15   16 1
    21   15   17 1
    22   15   37 1
    23   16   21 1
    24   17   18 1
    25   17   19 1
    26   17   38 1
    27   18   39 1
    28   19   20 1
    29   19   21 1
    30   19   40 1
    31   20   41 1
    32   21   22 1
    33   21   42 1
    34   22   23 ar
    35   22   31 ar
    36   23   24 ar
    37   23   43 1
    38   24   25 ar
    39   25   26 ar
    40   25   31 ar
    41   26   27 1
    42   26   28 ar
    43   27   44 1
    44   27   45 1
    45   28   29 ar
    46   28   47 1
    47   29   30 ar
    48   29   46 1
    49   30   31 ar
@<TRIPOS>SUBSTRUCTURE
     1 ACP         1 GROUP 0 A     ****
@<TRIPOS>MOLECULE
[[5-(6-amino-1,8-dihydropurine-6,8-diylium-7-id-9-yl)-3,4-dihydroxy-tetrahydrofuran-2-yl]methoxy-oxido-phosphoryl]oxy-[[hydroxy(oxido)phosphoryl]methyl]phosphinate
   47    49     1     0     0
SMALL
USER_CHARGES

@<TRIPOS>ATOM
      1 PG         -4.4896   -1.7005    3.9651 P.3       1 ACP        -1.2804
      2 O1G        -5.9127   -1.3589    4.3405 O.co2     1 ACP         0.3195
      3 O2G        -4.1308   -2.9920    3.2669 O.co2     1 ACP         0.3195
      4 O3G        -3.8265   -0.4480    3.1580 O.3       1 ACP         0.0326
      5 PB         -1.6512   -1.9389    5.5341 P.3       1 ACP        -1.2804
      6 O1B        -1.1840   -1.7551    6.9591 O.co2     1 ACP         0.3195
      7 O2B        -1.0322   -1.1831    4.3809 O.co2     1 ACP         0.3195
      8 C3B        -3.4674   -1.6009    5.5005 C.3       1 ACP         0.8942
      9 PA         -0.5272   -4.5716    4.7518 P.3       1 ACP        -1.1062
     10 O1A        -1.1664   -5.8869    4.3629 O.co2     1 ACP         0.3195
     11 O2A         0.5547   -4.5231    5.8089 O.co2     1 ACP         0.3195
     12 O3A        -1.7101   -3.5279    5.1738 O.3       1 ACP         0.4672
     13 O5'         0.0099   -3.8403    3.3910 O.3       1 ACP         0.1618
     14 C5'        -0.7840   -3.8935    2.2172 C.3       1 ACP         0.1504
     15 C4'        -0.0724   -3.1466    1.1027 C.3       1 ACP         0.1111
     16 O4'        -0.8674   -3.1929   -0.0945 O.3       1 ACP        -0.1436
     17 C3'         0.1338   -1.6715    1.4027 C.3       1 ACP         0.1111
     18 O3'         1.2893   -1.4445    2.1808 O.3       1 ACP        -0.2728
     19 C2'         0.2158   -1.0724    0.0128 C.3       1 ACP         0.1111
     20 O2'         1.5141   -1.2448   -0.5513 O.3       1 ACP        -0.2728
     21 C1'        -0.7897   -1.9176   -0.7583 C.3       1 ACP         0.2693
     22 N9         -2.1040   -1.3333   -0.7704 N.pl3     1 ACP        -0.3222
     23 C8         -3.3877   -1.9383   -0.1859 C.ar      1 ACP         0.1640
     24 N7         -4.4144   -1.0952   -0.3898 N.2       1 ACP        -0.1640
     25 C5         -3.7988   -0.0622   -1.0459 C.ar      1 ACP         0.0820
     26 C6         -4.5350    1.1514   -1.4997 C.ar      1 ACP         0.1640
     27 N6         -5.8347    1.2592   -1.2722 N.pl3     1 ACP        -0.4916
     28 N1         -3.7771    2.0576   -2.1221 N.pl3     1 ACP        -0.4390
     29 C2         -2.3607    1.8514   -2.3252 C.ar      1 ACP         0.5691
     30 N3         -1.7031    0.8030   -1.9377 N.ar      1 ACP        -0.4283
     31 C4         -2.4728   -0.1265   -1.3008 C.ar      1 ACP         0.2226
     32 HOG3       -4.2448   -0.1578    2.3195 H         1 ACP         0.2010
     33 H3B1       -3.9258   -2.2932    6.2154 H         1 ACP        -0.0393
     34 H3B2       -3.5962   -0.5877    5.8972 H         1 ACP        -0.0393
     35 H5'1       -0.9358   -4.9414    1.9395 H         1 ACP        -0.0393
     36 H5'2       -1.7558   -3.4349    2.4258 H         1 ACP        -0.0393
     37 H4'         0.8883   -3.6447    0.8783 H         1 ACP        -0.0393
     38 H3'        -0.7368   -1.2359    1.9871 H         1 ACP        -0.0393
     39 HO3'        1.1625   -1.9325    3.0084 H         1 ACP         0.2010
     40 H2'        -0.0343   -0.0280    0.0196 H         1 ACP        -0.0393
     41 HO2'        2.1443   -0.7955    0.0378 H         1 ACP         0.2010
     42 H1'        -0.5175   -2.1046   -1.7826 H         1 ACP        -0.0393
     43 H8         -3.5590   -2.8873    0.3318 H         1 ACP         0.0000
     44 HN61       -6.3278    0.5206   -0.7915 H         1 ACP         0.2048
     45 HN62       -6.3361    2.0806   -1.5783 H         1 ACP         0.2048
     46 H2         -1.8692    2.6833   -2.8525 H         1 ACP        -0.1292
     47 H47        -4.2310    2.9046   -2.4517 H         1 ACP         0.2048
@<TRIPOS>BOND
     1    1    2 2
     2    1    3 1
     3    1    4 1
     4    1    8 1
     5    4   32 1
     6    5    6 2
     7    5    7 1
     8    5    8 1
     9    5   12 1
    10    8   33 1
    11    8   34 1
    12    9   10 2
    13    9   11 1
    14    9   12 1
    15    9   13 1
    16   13   14 1
    17   14   15 1
    18   14   35 1
    19   14   36 1
    20   15   16 1
    21   15   17 1
    22   15   37 1
    23   16   21 1
    24   17   18 1
    25   17   19 1
    26   17   38 1
    27   18   39 1
    28   19   20 1
    29   19   21 1
    30   19   40 1
    31   20   41 1
    32   21   22 1
    33   21   42 1
    34   22   23 ar
    35   22   31 ar
    36   23   24 ar
    37   23   43 1
    38   24   25 ar
    39   25   26 ar
    40   25   31 ar
    41   26   27 1
    42   26   28 ar
    43   27   44 1
    44   27   45 1
    45   28   29 ar
    46   28   47 1
    47   29   30 ar
    48   29   46 1
    49   30   31 ar
@<TRIPOS>SUBSTRUCTURE
     1 ACP         1 GROUP 0 A     ****
@<TRIPOS>MOLECULE
[[5-(6-amino-1,8-dihydropurine-6,8-diylium-7-id-9-yl)-3,4-dihydroxy-tetrahydrofuran-2-yl]methoxy-oxido-phosphoryl]oxy-[[hydroxy(oxido)phosphoryl]methyl]phosphinate
   47    49     1     0     0
SMALL
USER_CHARGES

@<TRIPOS>ATOM
      1 PG         -0.6357   -2.0320   -6.0114 P.3       1 ACP        -1.2804
      2 O1G        -1.6729   -2.2707   -7.0839 O.co2     1 ACP         0.3195
      3 O2G        -0.9691   -1.3361   -4.7119 O.co2     1 ACP         0.3195
      4 O3G         0.1443   -3.4282   -5.6917 O.3       1 ACP         0.0326
      5 PB          2.2777   -0.5957   -5.8554 P.3       1 ACP        -1.2804
      6 O1B         3.1825    0.1241   -6.8279 O.co2     1 ACP         0.3195
      7 O2B         2.7442   -1.7908   -5.0563 O.co2     1 ACP         0.3195
      8 C3B         0.7671   -1.1128   -6.7855 C.3       1 ACP         0.8942
      9 PA          2.2208    1.5499   -3.8060 P.3       1 ACP        -1.1062
     10 O1A         1.0984    2.1840   -3.0136 O.co2     1 ACP         0.3195
     11 O2A         3.2201    2.4089   -4.5502 O.co2     1 ACP         0.3195
     12 O3A         1.5710    0.4830   -4.8579 O.3       1 ACP         0.4672
     13 O5'         3.0198    0.5138   -2.8245 O.3       1 ACP         0.1618
     14 C5'         2.2816   -0.2918   -1.9206 C.3       1 ACP         0.1504
     15 C4'         2.7248    0.0226   -0.4980 C.3       1 ACP         0.1111
     16 O4'         2.4697    1.4219   -0.2462 O.3       1 ACP        -0.1436
     17 C3'         1.9404   -0.7419    0.5596 C.3       1 ACP         0.1111
     18 O3'         2.7418   -0.8086    1.7389 O.3       1 ACP        -0.2728
     19 C2'         0.7477    0.1630    0.7858 C.3       1 ACP         0.1111
     20 O2'         0.1373   -0.0577    2.0407 O.3       1 ACP        -0.2728
     21 C1'         1.3733    1.5427    0.6747 C.3       1 ACP         0.2693
     22 N9          0.4520    2.5240    0.1767 N.pl3     1 ACP        -0.3222
     23 C8         -1.0247    2.3053   -0.1800 C.ar      1 ACP         0.1640
     24 N7         -1.5580    3.4612   -0.6116 N.2       1 ACP        -0.1640
     25 C5         -0.4873    4.3110   -0.5222 C.ar      1 ACP         0.0820
     26 C6         -0.5728    5.7505   -0.8981 C.ar      1 ACP         0.1640
     27 N6         -1.7163    6.2514   -1.3385 N.pl3     1 ACP        -0.4916
     28 N1          0.5667    6.4301   -0.7475 N.pl3     1 ACP        -0.4390
     29 C2          1.7697    5.7952   -0.2579 C.ar      1 ACP         0.5691
     30 N3          1.8633    4.5450    0.0742 N.ar      1 ACP        -0.4283
     31 C4          0.7014    3.8457   -0.0776 C.ar      1 ACP         0.2226
     32 HOG3       -0.3786   -4.1930   -5.3697 H         1 ACP         0.2010
     33 H3B1        0.3345   -0.1992   -7.2083 H         1 ACP        -0.0393
     34 H3B2        1.1195   -1.7259   -7.6223 H         1 ACP        -0.0393
     35 H5'1        1.2153   -0.0781   -2.0454 H         1 ACP        -0.0393
     36 H5'2        2.4645   -1.3454   -2.1547 H         1 ACP        -0.0393
     37 H4'         3.8046   -0.1390   -0.4011 H         1 ACP        -0.0393
     38 H3'         1.6787   -1.7627    0.2719 H         1 ACP        -0.0393
     39 HO3'        2.2231   -1.2979    2.3952 H         1 ACP         0.2010
     40 H2'         0.0002   -0.0084   -0.0014 H         1 ACP        -0.0393
     41 HO2'       -0.1554   -0.9852    2.0577 H         1 ACP         0.2010
     42 H1'         1.7718    1.9211    1.6015 H         1 ACP        -0.0393
     43 H8         -1.6458    1.4054   -0.1318 H         1 ACP         0.0000
     44 HN61       -2.5307    5.6598   -1.4199 H         1 ACP         0.2048
     45 HN62       -1.7773    7.2266   -1.5938 H         1 ACP         0.2048
     46 H2          2.6279    6.4808   -0.1872 H         1 ACP        -0.1292
     47 H47         0.5621    7.4166   -0.9900 H         1 ACP         0.2048
@<TRIPOS>BOND
     1    1    2 2
     2    1    3 1
     3    1    4 1
     4    1    8 1
     5    4   32 1
     6    5    6 2
     7    5    7 1
     8    5    8 1
     9    5   12 1
    10    8   33 1
    11    8   34 1
    12    9   10 2
    13    9   11 1
    14    9   12 1
    15    9   13 1
    16   13   14 1
    17   14   15 1
    18   14   35 1
    19   14   36 1
    20   15   16 1
    21   15   17 1
    22   15   37 1
    23   16   21 1
    24   17   18 1
    25   17   19 1
    26   17   38 1
    27   18   39 1
    28   19   20 1
    29   19   21 1
    30   19   40 1
    31   20   41 1
    32   21   22 1
    33   21   42 1
    34   22   23 ar
    35   22   31 ar
    36   23   24 ar
    37   23   43 1
    38   24   25 ar
    39   25   26 ar
    40   25   31 ar
    41   26   27 1
    42   26   28 ar
    43   27   44 1
    44   27   45 1
    45   28   29 ar
    46   28   47 1
    47   29   30 ar
    48   29   46 1
    49   30   31 ar
@<TRIPOS>SUBSTRUCTURE
     1 ACP         1 GROUP 0 A     ****
@<TRIPOS>MOLECULE
[[5-(6-amino-1,8-dihydropurine-6,8-diylium-7-id-9-yl)-3,4-dihydroxy-tetrahydrofuran-2-yl]methoxy-oxido-phosphoryl]oxy-[[hydroxy(oxido)phosphoryl]methyl]phosphinate
   47    49     1     0     0
SMALL
USER_CHARGES

@<TRIPOS>ATOM
      1 PG         -3.8267   -7.4469    3.3987 P.3       1 ACP        -1.2804
      2 O1G        -3.9961   -8.8188    2.7888 O.co2     1 ACP         0.3195
      3 O2G        -3.3375   -6.2647    2.5941 O.co2     1 ACP         0.3195
      4 O3G        -5.1912   -7.0337    4.1906 O.3       1 ACP         0.0326
      5 PB         -2.2119   -6.1970    5.9296 P.3       1 ACP        -1.2804
      6 O1B        -1.3033   -6.7396    7.0079 O.co2     1 ACP         0.3195
      7 O2B        -3.4652   -5.4160    6.2516 O.co2     1 ACP         0.3195
      8 C3B        -2.7106   -7.6192    4.8605 C.3       1 ACP         0.8942
      9 PA         -0.7235   -3.8665    4.8526 P.3       1 ACP        -1.1062
     10 O1A         0.3457   -3.7994    5.9213 O.co2     1 ACP         0.3195
     11 O2A        -1.8771   -2.8868    4.8538 O.co2     1 ACP         0.3195
     12 O3A        -1.3317   -5.3818    4.8256 O.3       1 ACP         0.4672
     13 O5'         0.0099   -3.8403    3.3910 O.3       1 ACP         0.1618
     14 C5'        -0.7840   -3.8935    2.2172 C.3       1 ACP         0.1504
     15 C4'        -0.0724   -3.1466    1.1027 C.3       1 ACP         0.1111
     16 O4'        -0.8674   -3.1929   -0.0945 O.3       1 ACP        -0.1436
     17 C3'         0.1338   -1.6715    1.4027 C.3       1 ACP         0.1111
     18 O3'         1.2893   -1.4445    2.1808 O.3       1 ACP        -0.2728
     19 C2'         0.2158   -1.0724    0.0128 C.3       1 ACP         0.1111
     20 O2'         1.5141   -1.2448   -0.5513 O.3       1 ACP        -0.2728
     21 C1'        -0.7897   -1.9176   -0.7583 C.3       1 ACP         0.2693
     22 N9         -2.1040   -1.3333   -0.7704 N.pl3     1 ACP        -0.3222
     23 C8         -3.2124   -1.5345    0.2719 C.ar      1 ACP         0.1640
     24 N7         -4.2964   -0.8234   -0.0828 N.2       1 ACP        -0.1640
     25 C5         -3.8754   -0.2386   -1.2478 C.ar      1 ACP         0.0820
     26 C6         -4.7432    0.6719   -2.0470 C.ar      1 ACP         0.1640
     27 N6         -5.9725    0.9415   -1.6366 N.pl3     1 ACP        -0.4916
     28 N1         -4.1703    1.1517   -3.1536 N.pl3     1 ACP        -0.4390
     29 C2         -2.8174    0.7994   -3.5215 C.ar      1 ACP         0.5691
     30 N3         -2.0475    0.0097   -2.8393 N.ar      1 ACP        -0.4283
     31 C4         -2.6278   -0.4836   -1.7071 C.ar      1 ACP         0.2226
     32 HOG3       -6.0290   -6.9813    3.6831 H         1 ACP         0.2010
     33 H3B1       -1.7834   -8.0646    4.4832 H         1 ACP        -0.0393
     34 H3B2       -3.1784   -8.3521    5.5271 H         1 ACP        -0.0393
     35 H5'1       -0.9358   -4.9414    1.9395 H         1 ACP        -0.0393
     36 H5'2       -1.7558   -3.4349    2.4258 H         1 ACP        -0.0393
     37 H4'         0.8883   -3.6447    0.8783 H         1 ACP        -0.0393
     38 H3'        -0.7368   -1.2359    1.9871 H         1 ACP        -0.0393
     39 HO3'        1.1625   -1.9325    3.0084 H         1 ACP         0.2010
     40 H2'        -0.0343   -0.0280    0.0196 H         1 ACP        -0.0393
     41 HO2'        2.1443   -0.7955    0.0378 H         1 ACP         0.2010
     42 H1'        -0.5175   -2.1046   -1.7826 H         1 ACP        -0.0393
     43 H8         -3.2310   -2.1319    1.1889 H         1 ACP         0.0000
     44 HN61       -6.3230    0.5316   -0.7829 H         1 ACP         0.2048
     45 HN62       -6.5628    1.5584   -2.1760 H         1 ACP         0.2048
     46 H2         -2.4822    1.2710   -4.4579 H         1 ACP        -0.1292
     47 H47        -4.7200    1.7780   -3.7346 H         1 ACP         0.2048
@<TRIPOS>BOND
     1    1    2 2
     2    1    3 1
     3    1    4 1
     4    1    8 1
     5    4   32 1
     6    5    6 2
     7    5    7 1
     8    5    8 1
     9    5   12 1
    10    8   33 1
    11    8   34 1
    12    9   10 2
    13    9   11 1
    14    9   12 1
    15    9   13 1
    16   13   14 1
    17   14   15 1
    18   14   35 1
    19   14   36 1
    20   15   16 1
    21   15   17 1
    22   15   37 1
    23   16   21 1
    24   17   18 1
    25   17   19 1
    26   17   38 1
    27   18   39 1
    28   19   20 1
    29   19   21 1
    30   19   40 1
    31   20   41 1
    32   21   22 1
    33   21   42 1
    34   22   23 ar
    35   22   31 ar
    36   23   24 ar
    37   23   43 1
    38   24   25 ar
    39   25   26 ar
    40   25   31 ar
    41   26   27 1
    42   26   28 ar
    43   27   44 1
    44   27   45 1
    45   28   29 ar
    46   28   47 1
    47   29   30 ar
    48   29   46 1
    49   30   31 ar
@<TRIPOS>SUBSTRUCTURE
     1 ACP         1 GROUP 0 A     ****
@<TRIPOS>MOLECULE
[[5-(6-amino-1,8-dihydropurine-6,8-diylium-7-id-9-yl)-3,4-dihydroxy-tetrahydrofuran-2-yl]methoxy-oxido-phosphoryl]oxy-[[hydroxy(oxido)phosphoryl]methyl]phosphinate
   47    49     1     0     0
SMALL
USER_CHARGES

@<TRIPOS>ATOM
      1 PG         -2.0687   -4.1959    6.6368 P.3       1 ACP        -1.2804
      2 O1G        -2.2898   -4.0695    8.1260 O.co2     1 ACP         0.3195
      3 O2G        -2.5222   -3.1318    5.6640 O.co2     1 ACP         0.3195
      4 O3G        -0.5047   -4.5584    6.3501 O.3       1 ACP         0.0326
      5 PB         -2.7936   -6.3845    4.3434 P.3       1 ACP        -1.2804
      6 O1B        -3.5171   -5.3531    3.5094 O.co2     1 ACP         0.3195
      7 O2B        -3.2009   -7.8399    4.3539 O.co2     1 ACP         0.3195
      8 C3B        -2.8179   -5.7948    6.0943 C.3       1 ACP         0.8942
      9 PA         -0.3084   -6.4368    2.7224 P.3       1 ACP        -1.1062
     10 O1A        -0.6613   -7.7629    2.0847 O.co2     1 ACP         0.3195
     11 O2A         1.1316   -6.0899    3.0334 O.co2     1 ACP         0.3195
     12 O3A        -1.1872   -6.2712    4.0888 O.3       1 ACP         0.4672
     13 O5'        -0.9728   -5.2427    1.8237 O.3       1 ACP         0.1618
     14 C5'        -0.7840   -3.8935    2.2172 C.3       1 ACP         0.1504
     15 C4'        -0.0724   -3.1466    1.1027 C.3       1 ACP         0.1111
     16 O4'        -0.8674   -3.1929   -0.0945 O.3       1 ACP        -0.1436
     17 C3'         0.1338   -1.6715    1.4027 C.3       1 ACP         0.1111
     18 O3'         1.2893   -1.4445    2.1808 O.3       1 ACP        -0.2728
     19 C2'         0.2158   -1.0724    0.0128 C.3       1 ACP         0.1111
     20 O2'         1.5141   -1.2448   -0.5513 O.3       1 ACP        -0.2728
     21 C1'        -0.7897   -1.9176   -0.7583 C.3       1 ACP         0.2693
     22 N9         -2.1040   -1.3333   -0.7704 N.pl3     1 ACP        -0.3222
     23 C8         -3.2124   -1.5345    0.2719 C.ar      1 ACP         0.1640
     24 N7         -4.2964   -0.8234   -0.0828 N.2       1 ACP        -0.1640
     25 C5         -3.8754   -0.2386   -1.2478 C.ar      1 ACP         0.0820
     26 C6         -4.7432    0.6719   -2.0470 C.ar      1 ACP         0.1640
     27 N6         -5.9725    0.9415   -1.6366 N.pl3     1 ACP        -0.4916
     28 N1         -4.1703    1.1517   -3.1536 N.pl3     1 ACP        -0.4390
     29 C2         -2.8174    0.7994   -3.5215 C.ar      1 ACP         0.5691
     30 N3         -2.0475    0.0097   -2.8393 N.ar      1 ACP        -0.4283
     31 C4         -2.6278   -0.4836   -1.7071 C.ar      1 ACP         0.2226
     32 HOG3        0.1845   -3.9300    6.6539 H         1 ACP         0.2010
     33 H3B1       -3.8710   -5.7533    6.3938 H         1 ACP        -0.0393
     34 H3B2       -2.3396   -6.5820    6.6876 H         1 ACP        -0.0393
     35 H5'1       -1.7614   -3.4427    2.4167 H         1 ACP        -0.0393
     36 H5'2       -0.1870   -3.8723    3.1344 H         1 ACP        -0.0393
     37 H4'         0.8883   -3.6447    0.8783 H         1 ACP        -0.0393
     38 H3'        -0.7368   -1.2359    1.9871 H         1 ACP        -0.0393
     39 HO3'        1.3407   -0.4871    2.3218 H         1 ACP         0.2010
     40 H2'        -0.0343   -0.0280    0.0196 H         1 ACP        -0.0393
     41 HO2'        2.1443   -0.7955    0.0378 H         1 ACP         0.2010
     42 H1'        -0.5175   -2.1046   -1.7826 H         1 ACP        -0.0393
     43 H8         -3.2310   -2.1319    1.1889 H         1 ACP         0.0000
     44 HN61       -6.5630    1.5580   -2.1762 H         1 ACP         0.2048
     45 HN62       -6.3231    0.5311   -0.7832 H         1 ACP         0.2048
     46 H2         -2.4822    1.2710   -4.4579 H         1 ACP        -0.1292
     47 H47        -4.7200    1.7780   -3.7346 H         1 ACP         0.2048
@<TRIPOS>BOND
     1    1    2 2
     2    1    3 1
     3    1    4 1
     4    1    8 1
     5    4   32 1
     6    5    6 2
     7    5    7 1
     8    5    8 1
     9    5   12 1
    10    8   33 1
    11    8   34 1
    12    9   10 2
    13    9   11 1
    14    9   12 1
    15    9   13 1
    16   13   14 1
    17   14   15 1
    18   14   35 1
    19   14   36 1
    20   15   16 1
    21   15   17 1
    22   15   37 1
    23   16   21 1
    24   17   18 1
    25   17   19 1
    26   17   38 1
    27   18   39 1
    28   19   20 1
    29   19   21 1
    30   19   40 1
    31   20   41 1
    32   21   22 1
    33   21   42 1
    34   22   23 ar
    35   22   31 ar
    36   23   24 ar
    37   23   43 1
    38   24   25 ar
    39   25   26 ar
    40   25   31 ar
    41   26   27 1
    42   26   28 ar
    43   27   44 1
    44   27   45 1
    45   28   29 ar
    46   28   47 1
    47   29   30 ar
    48   29   46 1
    49   30   31 ar
@<TRIPOS>SUBSTRUCTURE
     1 ACP         1 GROUP 0 A     ****
@<TRIPOS>MOLECULE
[[5-(6-amino-1,8-dihydropurine-6,8-diylium-7-id-9-yl)-3,4-dihydroxy-tetrahydrofuran-2-yl]methoxy-oxido-phosphoryl]oxy-[[hydroxy(oxido)phosphoryl]methyl]phosphinate
   47    49     1     0     0
SMALL
USER_CHARGES

@<TRIPOS>ATOM
      1 PG          3.3520   -7.2978    1.8553 P.3       1 ACP        -1.2804
      2 O1G         2.9179   -5.8722    1.6063 O.co2     1 ACP         0.3195
      3 O2G         4.0528   -8.1206    0.7988 O.co2     1 ACP         0.3195
      4 O3G         4.1994   -7.3710    3.2468 O.3       1 ACP         0.0326
      5 PB          0.8862   -7.8278    3.9082 P.3       1 ACP        -1.2804
      6 O1B         1.8198   -7.9248    5.0920 O.co2     1 ACP         0.3195
      7 O2B        -0.4069   -8.6070    3.8375 O.co2     1 ACP         0.3195
      8 C3B         1.8640   -8.2484    2.3978 C.3       1 ACP         0.8942
      9 PA         -0.0671   -5.0728    4.4633 P.3       1 ACP        -1.1062
     10 O1A         0.8700   -4.7631    5.6103 O.co2     1 ACP         0.3195
     11 O2A        -1.5164   -5.4219    4.7247 O.co2     1 ACP         0.3195
     12 O3A         0.5967   -6.2612    3.5612 O.3       1 ACP         0.4672
     13 O5'         0.0099   -3.8403    3.3910 O.3       1 ACP         0.1618
     14 C5'        -0.7840   -3.8935    2.2172 C.3       1 ACP         0.1504
     15 C4'        -0.0724   -3.1466    1.1027 C.3       1 ACP         0.1111
     16 O4'        -0.8674   -3.1929   -0.0945 O.3       1 ACP        -0.1436
     17 C3'         0.1338   -1.6715    1.4027 C.3       1 ACP         0.1111
     18 O3'         1.2893   -1.4445    2.1808 O.3       1 ACP        -0.2728
     19 C2'         0.2158   -1.0724    0.0128 C.3       1 ACP         0.1111
     20 O2'         1.5141   -1.2448   -0.5513 O.3       1 ACP        -0.2728
     21 C1'        -0.7897   -1.9176   -0.7583 C.3       1 ACP         0.2693
     22 N9         -2.1040   -1.3333   -0.7704 N.pl3     1 ACP        -0.3222
     23 C8         -3.2124   -1.5345    0.2719 C.ar      1 ACP         0.1640
     24 N7         -4.2964   -0.8234   -0.0828 N.2       1 ACP        -0.1640
     25 C5         -3.8754   -0.2386   -1.2478 C.ar      1 ACP         0.0820
     26 C6         -4.7432    0.6719   -2.0470 C.ar      1 ACP         0.1640
     27 N6         -5.9725    0.9415   -1.6366 N.pl3     1 ACP        -0.4916
     28 N1         -4.1703    1.1517   -3.1536 N.pl3     1 ACP        -0.4390
     29 C2         -2.8174    0.7994   -3.5215 C.ar      1 ACP         0.5691
     30 N3         -2.0475    0.0097   -2.8393 N.ar      1 ACP        -0.4283
     31 C4         -2.6278   -0.4836   -1.7071 C.ar      1 ACP         0.2226
     32 HOG3        5.0216   -6.8413    3.3223 H         1 ACP         0.2010
     33 H3B1        2.1949   -9.2857    2.5206 H         1 ACP        -0.0393
     34 H3B2        1.1567   -8.2272    1.5613 H         1 ACP        -0.0393
     35 H5'1       -0.9358   -4.9414    1.9395 H         1 ACP        -0.0393
     36 H5'2       -1.7558   -3.4349    2.4258 H         1 ACP        -0.0393
     37 H4'         0.8883   -3.6447    0.8783 H         1 ACP        -0.0393
     38 H3'        -0.7368   -1.2359    1.9871 H         1 ACP        -0.0393
     39 HO3'        1.1625   -1.9325    3.0084 H         1 ACP         0.2010
     40 H2'        -0.0343   -0.0280    0.0196 H         1 ACP        -0.0393
     41 HO2'        1.4978   -0.8409   -1.4361 H         1 ACP         0.2010
     42 H1'        -0.5175   -2.1046   -1.7826 H         1 ACP        -0.0393
     43 H8         -3.2310   -2.1319    1.1889 H         1 ACP         0.0000
     44 HN61       -6.3230    0.5316   -0.7829 H         1 ACP         0.2048
     45 HN62       -6.5628    1.5584   -2.1760 H         1 ACP         0.2048
     46 H2         -2.4822    1.2710   -4.4579 H         1 ACP        -0.1292
     47 H47        -4.7200    1.7780   -3.7346 H         1 ACP         0.2048
@<TRIPOS>BOND
     1    1    2 2
     2    1    3 1
     3    1    4 1
     4    1    8 1
     5    4   32 1
     6    5    6 2
     7    5    7 1
     8    5    8 1
     9    5   12 1
    10    8   33 1
    11    8   34 1
    12    9   10 2
    13    9   11 1
    14    9   12 1
    15    9   13 1
    16   13   14 1
    17   14   15 1
    18   14   35 1
    19   14   36 1
    20   15   16 1
    21   15   17 1
    22   15   37 1
    23   16   21 1
    24   17   18 1
    25   17   19 1
    26   17   38 1
    27   18   39 1
    28   19   20 1
    29   19   21 1
    30   19   40 1
    31   20   41 1
    32   21   22 1
    33   21   42 1
    34   22   23 ar
    35   22   31 ar
    36   23   24 ar
    37   23   43 1
    38   24   25 ar
    39   25   26 ar
    40   25   31 ar
    41   26   27 1
    42   26   28 ar
    43   27   44 1
    44   27   45 1
    45   28   29 ar
    46   28   47 1
    47   29   30 ar
    48   29   46 1
    49   30   31 ar
@<TRIPOS>SUBSTRUCTURE
     1 ACP         1 GROUP 0 A     ****
@<TRIPOS>MOLECULE
[[5-(6-amino-1,8-dihydropurine-6,8-diylium-7-id-9-yl)-3,4-dihydroxy-tetrahydrofuran-2-yl]methoxy-oxido-phosphoryl]oxy-[[hydroxy(oxido)phosphoryl]methyl]phosphinate
   47    49     1     0     0
SMALL
USER_CHARGES

@<TRIPOS>ATOM
      1 PG          0.3337   -0.3058   -8.0483 P.3       1 ACP        -1.2804
      2 O1G        -1.0251   -0.6419   -8.6172 O.co2     1 ACP         0.3195
      3 O2G         1.3926   -1.3598   -7.8208 O.co2     1 ACP         0.3195
      4 O3G         0.9791    0.9365   -8.8850 O.3       1 ACP         0.0326
      5 PB          1.4479    1.1717   -5.3743 P.3       1 ACP        -1.2804
      6 O1B         0.8280    1.8212   -4.1591 O.co2     1 ACP         0.3195
      7 O2B         2.4188    1.9050   -6.2710 O.co2     1 ACP         0.3195
      8 C3B         0.0668    0.5642   -6.4408 C.3       1 ACP         0.8942
      9 PA          3.4821   -0.6660   -4.2377 P.3       1 ACP        -1.1062
     10 O1A         4.6119   -0.0112   -5.0023 O.co2     1 ACP         0.3195
     11 O2A         3.4912   -2.1564   -3.9749 O.co2     1 ACP         0.3195
     12 O3A         2.0730   -0.2777   -4.9662 O.3       1 ACP         0.4672
     13 O5'         3.2883    0.1336   -2.8242 O.3       1 ACP         0.1618
     14 C5'         2.2816   -0.2918   -1.9206 C.3       1 ACP         0.1504
     15 C4'         2.7248    0.0226   -0.4980 C.3       1 ACP         0.1111
     16 O4'         2.4697    1.4219   -0.2462 O.3       1 ACP        -0.1436
     17 C3'         1.9404   -0.7419    0.5596 C.3       1 ACP         0.1111
     18 O3'         2.7418   -0.8086    1.7389 O.3       1 ACP        -0.2728
     19 C2'         0.7477    0.1630    0.7858 C.3       1 ACP         0.1111
     20 O2'         0.1373   -0.0577    2.0407 O.3       1 ACP        -0.2728
     21 C1'         1.3733    1.5427    0.6747 C.3       1 ACP         0.2693
     22 N9          0.4520    2.5240    0.1767 N.pl3     1 ACP        -0.3222
     23 C8         -0.7463    2.2774   -0.7501 C.ar      1 ACP         0.1640
     24 N7         -1.3714    3.4419   -0.9948 N.2       1 ACP        -0.1640
     25 C5         -0.6104    4.3223   -0.2723 C.ar      1 ACP         0.0820
     26 C6         -0.9062    5.7820   -0.2194 C.ar      1 ACP         0.1640
     27 N6         -1.9385    6.2713   -0.8881 N.pl3     1 ACP        -0.4916
     28 N1         -0.0613    6.4906    0.5336 N.pl3     1 ACP        -0.4390
     29 C2          1.0416    5.8662    1.2291 C.ar      1 ACP         0.5691
     30 N3          1.3146    4.5989    1.1954 N.ar      1 ACP        -0.4283
     31 C4          0.4541    3.8697    0.4273 C.ar      1 ACP         0.2226
     32 HOG3        1.1307    0.8235   -9.8476 H         1 ACP         0.2010
     33 H3B1       -0.5271   -0.1176   -5.8220 H         1 ACP        -0.0393
     34 H3B2       -0.5578    1.4379   -6.6575 H         1 ACP        -0.0393
     35 H5'1        1.3500    0.2325   -2.1560 H         1 ACP        -0.0393
     36 H5'2        2.1267   -1.3683   -2.0444 H         1 ACP        -0.0393
     37 H4'         3.8046   -0.1390   -0.4011 H         1 ACP        -0.0393
     38 H3'         1.6787   -1.7627    0.2719 H         1 ACP        -0.0393
     39 HO3'        2.2231   -1.2979    2.3952 H         1 ACP         0.2010
     40 H2'         0.0002   -0.0084   -0.0014 H         1 ACP        -0.0393
     41 HO2'       -0.6132    0.5577    2.1063 H         1 ACP         0.2010
     42 H1'         1.7718    1.9211    1.6015 H         1 ACP        -0.0393
     43 H8         -1.1244    1.3534   -1.1987 H         1 ACP         0.0000
     44 HN61       -2.5259    5.6573   -1.4336 H         1 ACP         0.2048
     45 HN62       -2.1416    7.2600   -0.8539 H         1 ACP         0.2048
     46 H2          1.6509    6.5764    1.8088 H         1 ACP        -0.1292
     47 H47        -0.2190    7.4917    0.6033 H         1 ACP         0.2048
@<TRIPOS>BOND
     1    1    2 2
     2    1    3 1
     3    1    4 1
     4    1    8 1
     5    4   32 1
     6    5    6 2
     7    5    7 1
     8    5    8 1
     9    5   12 1
    10    8   33 1
    11    8   34 1
    12    9   10 2
    13    9   11 1
    14    9   12 1
    15    9   13 1
    16   13   14 1
    17   14   15 1
    18   14   35 1
    19   14   36 1
    20   15   16 1
    21   15   17 1
    22   15   37 1
    23   16   21 1
    24   17   18 1
    25   17   19 1
    26   17   38 1
    27   18   39 1
    28   19   20 1
    29   19   21 1
    30   19   40 1
    31   20   41 1
    32   21   22 1
    33   21   42 1
    34   22   23 ar
    35   22   31 ar
    36   23   24 ar
    37   23   43 1
    38   24   25 ar
    39   25   26 ar
    40   25   31 ar
    41   26   27 1
    42   26   28 ar
    43   27   44 1
    44   27   45 1
    45   28   29 ar
    46   28   47 1
    47   29   30 ar
    48   29   46 1
    49   30   31 ar
@<TRIPOS>SUBSTRUCTURE
     1 ACP         1 GROUP 0 A     ****
@<TRIPOS>MOLECULE
[[5-(6-amino-1,8-dihydropurine-6,8-diylium-7-id-9-yl)-3,4-dihydroxy-tetrahydrofuran-2-yl]methoxy-oxido-phosphoryl]oxy-[[hydroxy(oxido)phosphoryl]methyl]phosphinate
   47    49     1     0     0
SMALL
USER_CHARGES

@<TRIPOS>ATOM
      1 PG         -4.6368   -2.0623    4.2451 P.3       1 ACP        -1.2804
      2 O1G        -5.5426   -3.2659    4.1274 O.co2     1 ACP         0.3195
      3 O2G        -3.5634   -1.7616    3.2245 O.co2     1 ACP         0.3195
      4 O3G        -5.5400   -0.7262    4.4884 O.3       1 ACP         0.0326
      5 PB         -2.7417   -3.5396    6.4362 P.3       1 ACP        -1.2804
      6 O1B        -3.5816   -4.7949    6.3982 O.co2     1 ACP         0.3195
      7 O2B        -2.0153   -3.0954    7.6850 O.co2     1 ACP         0.3195
      8 C3B        -3.8193   -2.1378    5.8998 C.3       1 ACP         0.8942
      9 PA         -0.5272   -4.5716    4.7518 P.3       1 ACP        -1.1062
     10 O1A        -1.1664   -5.8869    4.3629 O.co2     1 ACP         0.3195
     11 O2A         0.5547   -4.5231    5.8089 O.co2     1 ACP         0.3195
     12 O3A        -1.7101   -3.5279    5.1738 O.3       1 ACP         0.4672
     13 O5'         0.0099   -3.8403    3.3910 O.3       1 ACP         0.1618
     14 C5'        -0.7840   -3.8935    2.2172 C.3       1 ACP         0.1504
     15 C4'        -0.0724   -3.1466    1.1027 C.3       1 ACP         0.1111
     16 O4'        -0.8674   -3.1929   -0.0945 O.3       1 ACP        -0.1436
     17 C3'         0.1338   -1.6715    1.4027 C.3       1 ACP         0.1111
     18 O3'         1.2893   -1.4445    2.1808 O.3       1 ACP        -0.2728
     19 C2'         0.2158   -1.0724    0.0128 C.3       1 ACP         0.1111
     20 O2'         1.5141   -1.2448   -0.5513 O.3       1 ACP        -0.2728
     21 C1'        -0.7897   -1.9176   -0.7583 C.3       1 ACP         0.2693
     22 N9         -2.1040   -1.3333   -0.7704 N.pl3     1 ACP        -0.3222
     23 C8         -3.3877   -1.9383   -0.1859 C.ar      1 ACP         0.1640
     24 N7         -4.4144   -1.0952   -0.3898 N.2       1 ACP        -0.1640
     25 C5         -3.7988   -0.0622   -1.0459 C.ar      1 ACP         0.0820
     26 C6         -4.5350    1.1514   -1.4997 C.ar      1 ACP         0.1640
     27 N6         -5.8347    1.2592   -1.2722 N.pl3     1 ACP        -0.4916
     28 N1         -3.7771    2.0576   -2.1221 N.pl3     1 ACP        -0.4390
     29 C2         -2.3607    1.8514   -2.3252 C.ar      1 ACP         0.5691
     30 N3         -1.7031    0.8030   -1.9377 N.ar      1 ACP        -0.4283
     31 C4         -2.4728   -0.1265   -1.3008 C.ar      1 ACP         0.2226
     32 HOG3       -6.2007   -0.4778    3.8072 H         1 ACP         0.2010
     33 H3B1       -4.6243   -2.0638    6.6394 H         1 ACP        -0.0393
     34 H3B2       -3.2086   -1.2325    5.9889 H         1 ACP        -0.0393
     35 H5'1       -0.9358   -4.9414    1.9395 H         1 ACP        -0.0393
     36 H5'2       -1.7558   -3.4349    2.4258 H         1 ACP        -0.0393
     37 H4'         0.8883   -3.6447    0.8783 H         1 ACP        -0.0393
     38 H3'        -0.7368   -1.2359    1.9871 H         1 ACP        -0.0393
     39 HO3'        1.1625   -1.9325    3.0084 H         1 ACP         0.2010
     40 H2'        -0.0343   -0.0280    0.0196 H         1 ACP        -0.0393
     41 HO2'        2.1443   -0.7955    0.0378 H         1 ACP         0.2010
     42 H1'        -0.5175   -2.1046   -1.7826 H         1 ACP        -0.0393
     43 H8         -3.5590   -2.8873    0.3318 H         1 ACP         0.0000
     44 HN61       -6.3278    0.5206   -0.7915 H         1 ACP         0.2048
     45 HN62       -6.3361    2.0806   -1.5783 H         1 ACP         0.2048
     46 H2         -1.8692    2.6833   -2.8525 H         1 ACP        -0.1292
     47 H47        -4.2310    2.9046   -2.4517 H         1 ACP         0.2048
@<TRIPOS>BOND
     1    1    2 2
     2    1    3 1
     3    1    4 1
     4    1    8 1
     5    4   32 1
     6    5    6 2
     7    5    7 1
     8    5    8 1
     9    5   12 1
    10    8   33 1
    11    8   34 1
    12    9   10 2
    13    9   11 1
    14    9   12 1
    15    9   13 1
    16   13   14 1
    17   14   15 1
    18   14   35 1
    19   14   36 1
    20   15   16 1
    21   15   17 1
    22   15   37 1
    23   16   21 1
    24   17   18 1
    25   17   19 1
    26   17   38 1
    27   18   39 1
    28   19   20 1
    29   19   21 1
    30   19   40 1
    31   20   41 1
    32   21   22 1
    33   21   42 1
    34   22   23 ar
    35   22   31 ar
    36   23   24 ar
    37   23   43 1
    38   24   25 ar
    39   25   26 ar
    40   25   31 ar
    41   26   27 1
    42   26   28 ar
    43   27   44 1
    44   27   45 1
    45   28   29 ar
    46   28   47 1
    47   29   30 ar
    48   29   46 1
    49   30   31 ar
@<TRIPOS>SUBSTRUCTURE
     1 ACP         1 GROUP 0 A     ****
@<TRIPOS>MOLECULE
[[5-(6-amino-1,8-dihydropurine-6,8-diylium-7-id-9-yl)-3,4-dihydroxy-tetrahydrofuran-2-yl]methoxy-oxido-phosphoryl]oxy-[[hydroxy(oxido)phosphoryl]methyl]phosphinate
   47    49     1     0     0
SMALL
USER_CHARGES

@<TRIPOS>ATOM
      1 PG          7.4498   -1.2755   -0.6110 P.3       1 ACP        -1.2804
      2 O1G         7.7938   -1.9049    0.7188 O.co2     1 ACP         0.3195
      3 O2G         6.6227   -0.0147   -0.7133 O.co2     1 ACP         0.3195
      4 O3G         8.8086   -1.1033   -1.4965 O.3       1 ACP         0.0326
      5 PB          6.0159   -2.2560   -3.3602 P.3       1 ACP        -1.2804
      6 O1B         5.4034   -3.5429   -3.8614 O.co2     1 ACP         0.3195
      7 O2B         7.1242   -1.5488   -4.1058 O.co2     1 ACP         0.3195
      8 C3B         6.6203   -2.5647   -1.6416 C.3       1 ACP         0.8942
      9 PA          3.9534   -0.2075   -3.9573 P.3       1 ACP        -1.1062
     10 O1A         3.0635   -1.0663   -4.8291 O.co2     1 ACP         0.3195
     11 O2A         4.8781    0.8194   -4.5746 O.co2     1 ACP         0.3195
     12 O3A         4.8377   -1.1891   -2.9974 O.3       1 ACP         0.4672
     13 O5'         3.0198    0.5138   -2.8245 O.3       1 ACP         0.1618
     14 C5'         2.2816   -0.2918   -1.9206 C.3       1 ACP         0.1504
     15 C4'         2.7248    0.0226   -0.4980 C.3       1 ACP         0.1111
     16 O4'         2.4697    1.4219   -0.2462 O.3       1 ACP        -0.1436
     17 C3'         1.9404   -0.7419    0.5596 C.3       1 ACP         0.1111
     18 O3'         2.7418   -0.8086    1.7389 O.3       1 ACP        -0.2728
     19 C2'         0.7477    0.1630    0.7858 C.3       1 ACP         0.1111
     20 O2'         0.1373   -0.0577    2.0407 O.3       1 ACP        -0.2728
     21 C1'         1.3733    1.5427    0.6747 C.3       1 ACP         0.2693
     22 N9          0.4520    2.5240    0.1767 N.pl3     1 ACP        -0.3222
     23 C8         -1.0660    2.5608    0.3999 C.ar      1 ACP         0.1640
     24 N7         -1.5852    3.6333   -0.2221 N.2       1 ACP        -0.1640
     25 C5         -0.4682    4.1996   -0.7771 C.ar      1 ACP         0.0820
     26 C6         -0.5216    5.4476   -1.5899 C.ar      1 ACP         0.1640
     27 N6         -1.6813    6.0510   -1.7982 N.pl3     1 ACP        -0.4916
     28 N1          0.6621    5.8575   -2.0523 N.pl3     1 ACP        -0.4390
     29 C2          1.8795    5.1301   -1.7717 C.ar      1 ACP         0.5691
     30 N3          1.9458    4.0434   -1.0670 N.ar      1 ACP        -0.4283
     31 C4          0.7388    3.6199   -0.5917 C.ar      1 ACP         0.2226
     32 HOG3        9.5343   -0.5500   -1.1369 H         1 ACP         0.2010
     33 H3B1        5.7535   -2.9036   -1.0634 H         1 ACP        -0.0393
     34 H3B2        7.3176   -3.4070   -1.7105 H         1 ACP        -0.0393
     35 H5'1        1.2153   -0.0781   -2.0454 H         1 ACP        -0.0393
     36 H5'2        2.4645   -1.3454   -2.1547 H         1 ACP        -0.0393
     37 H4'         3.8046   -0.1390   -0.4011 H         1 ACP        -0.0393
     38 H3'         1.6787   -1.7627    0.2719 H         1 ACP        -0.0393
     39 HO3'        2.2231   -1.2979    2.3952 H         1 ACP         0.2010
     40 H2'         0.0002   -0.0084   -0.0014 H         1 ACP        -0.0393
     41 HO2'       -0.1554   -0.9852    2.0577 H         1 ACP         0.2010
     42 H1'         1.7718    1.9211    1.6015 H         1 ACP        -0.0393
     43 H8         -1.7235    1.8833    0.9537 H         1 ACP         0.0000
     44 HN61       -2.5296    5.6672   -1.4072 H         1 ACP         0.2048
     45 HN62       -1.7205    6.8969   -2.3483 H         1 ACP         0.2048
     46 H2          2.7750    5.5878   -2.2190 H         1 ACP        -0.1292
     47 H47         0.6808    6.7046   -2.6128 H         1 ACP         0.2048
@<TRIPOS>BOND
     1    1    2 2
     2    1    3 1
     3    1    4 1
     4    1    8 1
     5    4   32 1
     6    5    6 2
     7    5    7 1
     8    5    8 1
     9    5   12 1
    10    8   33 1
    11    8   34 1
    12    9   10 2
    13    9   11 1
    14    9   12 1
    15    9   13 1
    16   13   14 1
    17   14   15 1
    18   14   35 1
    19   14   36 1
    20   15   16 1
    21   15   17 1
    22   15   37 1
    23   16   21 1
    24   17   18 1
    25   17   19 1
    26   17   38 1
    27   18   39 1
    28   19   20 1
    29   19   21 1
    30   19   40 1
    31   20   41 1
    32   21   22 1
    33   21   42 1
    34   22   23 ar
    35   22   31 ar
    36   23   24 ar
    37   23   43 1
    38   24   25 ar
    39   25   26 ar
    40   25   31 ar
    41   26   27 1
    42   26   28 ar
    43   27   44 1
    44   27   45 1
    45   28   29 ar
    46   28   47 1
    47   29   30 ar
    48   29   46 1
    49   30   31 ar
@<TRIPOS>SUBSTRUCTURE
     1 ACP         1 GROUP 0 A     ****
@<TRIPOS>MOLECULE
[[5-(6-amino-1,8-dihydropurine-6,8-diylium-7-id-9-yl)-3,4-dihydroxy-tetrahydrofuran-2-yl]methoxy-oxido-phosphoryl]oxy-[[hydroxy(oxido)phosphoryl]methyl]phosphinate
   47    49     1     0     0
SMALL
USER_CHARGES

@<TRIPOS>ATOM
      1 PG          5.1701   -4.0155   -2.2378 P.3       1 ACP        -1.2804
      2 O1G         6.1710   -4.7291   -1.3593 O.co2     1 ACP         0.3195
      3 O2G         3.9993   -4.7333   -2.8689 O.co2     1 ACP         0.3195
      4 O3G         4.6351   -2.6778   -1.4736 O.3       1 ACP         0.0326
      5 PB          5.3023   -2.1900   -4.9258 P.3       1 ACP        -1.2804
      6 O1B         4.3452   -3.1009   -5.6584 O.co2     1 ACP         0.3195
      7 O2B         6.3947   -1.4286   -5.6409 O.co2     1 ACP         0.3195
      8 C3B         6.1089   -3.1897   -3.5975 C.3       1 ACP         0.8942
      9 PA          3.3324   -0.0529   -4.3266 P.3       1 ACP        -1.1062
     10 O1A         2.0985   -0.7700   -4.8296 O.co2     1 ACP         0.3195
     11 O2A         3.9793    1.0390   -5.1511 O.co2     1 ACP         0.3195
     12 O3A         4.4675   -1.1702   -3.9660 O.3       1 ACP         0.4672
     13 O5'         3.0198    0.5138   -2.8245 O.3       1 ACP         0.1618
     14 C5'         2.2816   -0.2918   -1.9206 C.3       1 ACP         0.1504
     15 C4'         2.7248    0.0226   -0.4980 C.3       1 ACP         0.1111
     16 O4'         2.4697    1.4219   -0.2462 O.3       1 ACP        -0.1436
     17 C3'         1.9404   -0.7419    0.5596 C.3       1 ACP         0.1111
     18 O3'         2.7418   -0.8086    1.7389 O.3       1 ACP        -0.2728
     19 C2'         0.7477    0.1630    0.7858 C.3       1 ACP         0.1111
     20 O2'         0.1373   -0.0577    2.0407 O.3       1 ACP        -0.2728
     21 C1'         1.3733    1.5427    0.6747 C.3       1 ACP         0.2693
     22 N9          0.4520    2.5240    0.1767 N.pl3     1 ACP        -0.3222
     23 C8         -0.4598    3.4379    1.0068 C.ar      1 ACP         0.1640
     24 N7         -1.1770    4.2228    0.1845 N.2       1 ACP        -0.1640
     25 C5         -0.7330    3.8149   -1.0455 C.ar      1 ACP         0.0820
     26 C6         -1.2413    4.4029   -2.3169 C.ar      1 ACP         0.1640
     27 N6         -2.1578    5.3575   -2.2831 N.pl3     1 ACP        -0.4916
     28 N1         -0.6977    3.8860   -3.4216 N.pl3     1 ACP        -0.4390
     29 C2          0.3002    2.8419   -3.3591 C.ar      1 ACP         0.5691
     30 N3          0.7548    2.3183   -2.2631 N.ar      1 ACP        -0.4283
     31 C4          0.2027    2.8430   -1.1309 C.ar      1 ACP         0.2226
     32 HOG3        4.1818   -2.7822   -0.6100 H         1 ACP         0.2010
     33 H3B1        6.6709   -3.9828   -4.1032 H         1 ACP        -0.0393
     34 H3B2        6.8376   -2.5271   -3.1174 H         1 ACP        -0.0393
     35 H5'1        1.2153   -0.0781   -2.0454 H         1 ACP        -0.0393
     36 H5'2        2.4645   -1.3454   -2.1547 H         1 ACP        -0.0393
     37 H4'         3.8046   -0.1390   -0.4011 H         1 ACP        -0.0393
     38 H3'         1.6787   -1.7627    0.2719 H         1 ACP        -0.0393
     39 HO3'        2.2231   -1.2979    2.3952 H         1 ACP         0.2010
     40 H2'         0.0002   -0.0084   -0.0014 H         1 ACP        -0.0393
     41 HO2'       -0.6132    0.5577    2.1063 H         1 ACP         0.2010
     42 H1'         1.7718    1.9211    1.6015 H         1 ACP        -0.0393
     43 H8         -0.5892    3.5248    2.0902 H         1 ACP         0.0000
     44 HN61       -2.5128    5.6880   -1.3974 H         1 ACP         0.2048
     45 HN62       -2.5040    5.7581   -3.1431 H         1 ACP         0.2048
     46 H2          0.6550    2.5166   -4.3490 H         1 ACP        -0.1292
     47 H47        -1.0101    4.2527   -4.3160 H         1 ACP         0.2048
@<TRIPOS>BOND
     1    1    2 2
     2    1    3 1
     3    1    4 1
     4    1    8 1
     5    4   32 1
     6    5    6 2
     7    5    7 1
     8    5    8 1
     9    5   12 1
    10    8   33 1
    11    8   34 1
    12    9   10 2
    13    9   11 1
    14    9   12 1
    15    9   13 1
    16   13   14 1
    17   14   15 1
    18   14   35 1
    19   14   36 1
    20   15   16 1
    21   15   17 1
    22   15   37 1
    23   16   21 1
    24   17   18 1
    25   17   19 1
    26   17   38 1
    27   18   39 1
    28   19   20 1
    29   19   21 1
    30   19   40 1
    31   20   41 1
    32   21   22 1
    33   21   42 1
    34   22   23 ar
    35   22   31 ar
    36   23   24 ar
    37   23   43 1
    38   24   25 ar
    39   25   26 ar
    40   25   31 ar
    41   26   27 1
    42   26   28 ar
    43   27   44 1
    44   27   45 1
    45   28   29 ar
    46   28   47 1
    47   29   30 ar
    48   29   46 1
    49   30   31 ar
@<TRIPOS>SUBSTRUCTURE
     1 ACP         1 GROUP 0 A     ****
@<TRIPOS>MOLECULE
[[5-(6-amino-1,8-dihydropurine-6,8-diylium-7-id-9-yl)-3,4-dihydroxy-tetrahydrofuran-2-yl]methoxy-oxido-phosphoryl]oxy-[[hydroxy(oxido)phosphoryl]methyl]phosphinate
   47    49     1     0     0
SMALL
USER_CHARGES

@<TRIPOS>ATOM
      1 PG         -1.8118   -0.6401   -5.0679 P.3       1 ACP        -1.2804
      2 O1G        -2.7068    0.5679   -5.2182 O.co2     1 ACP         0.3195
      3 O2G        -1.4373   -1.1993   -3.7147 O.co2     1 ACP         0.3195
      4 O3G        -2.3654   -1.8460   -6.0162 O.3       1 ACP         0.0326
      5 PB          1.1652   -1.4826   -6.0692 P.3       1 ACP        -1.2804
      6 O1B         2.2552   -0.8325   -6.8890 O.co2     1 ACP         0.3195
      7 O2B         0.5847   -2.8311   -6.4280 O.co2     1 ACP         0.3195
      8 C3B        -0.2407   -0.2875   -5.9732 C.3       1 ACP         0.8942
      9 PA          2.8591   -2.1299   -3.7201 P.3       1 ACP        -1.1062
     10 O1A         4.1120   -1.4115   -4.1715 O.co2     1 ACP         0.3195
     11 O2A         2.7558   -3.6365   -3.8202 O.co2     1 ACP         0.3195
     12 O3A         1.5799   -1.4712   -4.4925 O.3       1 ACP         0.4672
     13 O5'         2.5237   -1.6631   -2.1889 O.3       1 ACP         0.1618
     14 C5'         2.2816   -0.2918   -1.9206 C.3       1 ACP         0.1504
     15 C4'         2.7248    0.0226   -0.4980 C.3       1 ACP         0.1111
     16 O4'         2.4697    1.4219   -0.2462 O.3       1 ACP        -0.1436
     17 C3'         1.9404   -0.7419    0.5596 C.3       1 ACP         0.1111
     18 O3'         2.7418   -0.8086    1.7389 O.3       1 ACP        -0.2728
     19 C2'         0.7477    0.1630    0.7858 C.3       1 ACP         0.1111
     20 O2'         0.1373   -0.0577    2.0407 O.3       1 ACP        -0.2728
     21 C1'         1.3733    1.5427    0.6747 C.3       1 ACP         0.2693
     22 N9          0.4520    2.5240    0.1767 N.pl3     1 ACP        -0.3222
     23 C8         -1.0660    2.5608    0.3999 C.ar      1 ACP         0.1640
     24 N7         -1.5852    3.6333   -0.2221 N.2       1 ACP        -0.1640
     25 C5         -0.4682    4.1996   -0.7771 C.ar      1 ACP         0.0820
     26 C6         -0.5216    5.4476   -1.5899 C.ar      1 ACP         0.1640
     27 N6         -1.6813    6.0510   -1.7982 N.pl3     1 ACP        -0.4916
     28 N1          0.6621    5.8575   -2.0523 N.pl3     1 ACP        -0.4390
     29 C2          1.8795    5.1301   -1.7717 C.ar      1 ACP         0.5691
     30 N3          1.9458    4.0434   -1.0670 N.ar      1 ACP        -0.4283
     31 C4          0.7388    3.6199   -0.5917 C.ar      1 ACP         0.2226
     32 HOG3       -3.2727   -2.1846   -5.8603 H         1 ACP         0.2010
     33 H3B1        0.1623    0.6321   -5.5345 H         1 ACP        -0.0393
     34 H3B2       -0.5197   -0.0615   -7.0084 H         1 ACP        -0.0393
     35 H5'1        2.8429    0.3140   -2.6391 H         1 ACP        -0.0393
     36 H5'2        1.2125   -0.0906   -2.0420 H         1 ACP        -0.0393
     37 H4'         3.8046   -0.1390   -0.4011 H         1 ACP        -0.0393
     38 H3'         1.6787   -1.7627    0.2719 H         1 ACP        -0.0393
     39 HO3'        2.2231   -1.2979    2.3952 H         1 ACP         0.2010
     40 H2'         0.0002   -0.0084   -0.0014 H         1 ACP        -0.0393
     41 HO2'       -0.1554   -0.9852    2.0577 H         1 ACP         0.2010
     42 H1'         1.7718    1.9211    1.6015 H         1 ACP        -0.0393
     43 H8         -1.7235    1.8833    0.9537 H         1 ACP         0.0000
     44 HN61       -2.5296    5.6672   -1.4072 H         1 ACP         0.2048
     45 HN62       -1.7205    6.8969   -2.3483 H         1 ACP         0.2048
     46 H2          2.7750    5.5878   -2.2190 H         1 ACP        -0.1292
     47 H47         0.6808    6.7046   -2.6128 H         1 ACP         0.2048
@<TRIPOS>BOND
     1    1    2 2
     2    1    3 1
     3    1    4 1
     4    1    8 1
     5    4   32 1
     6    5    6 2
     7    5    7 1
     8    5    8 1
     9    5   12 1
    10    8   33 1
    11    8   34 1
    12    9   10 2
    13    9   11 1
    14    9   12 1
    15    9   13 1
    16   13   14 1
    17   14   15 1
    18   14   35 1
    19   14   36 1
    20   15   16 1
    21   15   17 1
    22   15   37 1
    23   16   21 1
    24   17   18 1
    25   17   19 1
    26   17   38 1
    27   18   39 1
    28   19   20 1
    29   19   21 1
    30   19   40 1
    31   20   41 1
    32   21   22 1
    33   21   42 1
    34   22   23 ar
    35   22   31 ar
    36   23   24 ar
    37   23   43 1
    38   24   25 ar
    39   25   26 ar
    40   25   31 ar
    41   26   27 1
    42   26   28 ar
    43   27   44 1
    44   27   45 1
    45   28   29 ar
    46   28   47 1
    47   29   30 ar
    48   29   46 1
    49   30   31 ar
@<TRIPOS>SUBSTRUCTURE
     1 ACP         1 GROUP 0 A     ****
@<TRIPOS>MOLECULE
[[5-(6-amino-1,8-dihydropurine-6,8-diylium-7-id-9-yl)-3,4-dihydroxy-tetrahydrofuran-2-yl]methoxy-oxido-phosphoryl]oxy-[[hydroxy(oxido)phosphoryl]methyl]phosphinate
   47    49     1     0     0
SMALL
USER_CHARGES

@<TRIPOS>ATOM
      1 PG         -1.2964    2.4995   -4.0549 P.3       1 ACP        -1.2804
      2 O1G        -1.8810    3.8624   -3.7658 O.co2     1 ACP         0.3195
      3 O2G        -0.7082    1.6304   -2.9673 O.co2     1 ACP         0.3195
      4 O3G        -2.3631    1.6262   -4.9263 O.3       1 ACP         0.0326
      5 PB          0.9951    1.3104   -6.0322 P.3       1 ACP        -1.2804
      6 O1B         1.9390    1.8846   -7.0629 O.co2     1 ACP         0.3195
      7 O2B         0.0321    0.1920   -6.3581 O.co2     1 ACP         0.3195
      8 C3B         0.0001    2.7116   -5.3534 C.3       1 ACP         0.8942
      9 PA          3.0653   -0.0868   -4.4294 P.3       1 ACP        -1.1062
     10 O1A         4.2789    0.4515   -5.1554 O.co2     1 ACP         0.3195
     11 O2A         2.5799   -1.4982   -4.6803 O.co2     1 ACP         0.3195
     12 O3A         1.8195    0.9401   -4.6753 O.3       1 ACP         0.4672
     13 O5'         3.2883    0.1336   -2.8242 O.3       1 ACP         0.1618
     14 C5'         2.2816   -0.2918   -1.9206 C.3       1 ACP         0.1504
     15 C4'         2.7248    0.0226   -0.4980 C.3       1 ACP         0.1111
     16 O4'         2.4697    1.4219   -0.2462 O.3       1 ACP        -0.1436
     17 C3'         1.9404   -0.7419    0.5596 C.3       1 ACP         0.1111
     18 O3'         2.7418   -0.8086    1.7389 O.3       1 ACP        -0.2728
     19 C2'         0.7477    0.1630    0.7858 C.3       1 ACP         0.1111
     20 O2'         0.1373   -0.0577    2.0407 O.3       1 ACP        -0.2728
     21 C1'         1.3733    1.5427    0.6747 C.3       1 ACP         0.2693
     22 N9          0.4520    2.5240    0.1767 N.pl3     1 ACP        -0.3222
     23 C8         -1.0247    2.3053   -0.1800 C.ar      1 ACP         0.1640
     24 N7         -1.5580    3.4612   -0.6116 N.2       1 ACP        -0.1640
     25 C5         -0.4873    4.3110   -0.5222 C.ar      1 ACP         0.0820
     26 C6         -0.5728    5.7505   -0.8981 C.ar      1 ACP         0.1640
     27 N6         -1.7163    6.2514   -1.3385 N.pl3     1 ACP        -0.4916
     28 N1          0.5667    6.4301   -0.7475 N.pl3     1 ACP        -0.4390
     29 C2          1.7697    5.7952   -0.2579 C.ar      1 ACP         0.5691
     30 N3          1.8633    4.5450    0.0742 N.ar      1 ACP        -0.4283
     31 C4          0.7014    3.8457   -0.0776 C.ar      1 ACP         0.2226
     32 HOG3       -3.2456    1.4439   -4.5389 H         1 ACP         0.2010
     33 H3B1        0.7170    3.4356   -4.9507 H         1 ACP        -0.0393
     34 H3B2       -0.4914    3.1808   -6.2129 H         1 ACP        -0.0393
     35 H5'1        1.3500    0.2325   -2.1560 H         1 ACP        -0.0393
     36 H5'2        2.1267   -1.3683   -2.0444 H         1 ACP        -0.0393
     37 H4'         3.8046   -0.1390   -0.4011 H         1 ACP        -0.0393
     38 H3'         1.6787   -1.7627    0.2719 H         1 ACP        -0.0393
     39 HO3'        3.5553   -1.2733    1.4913 H         1 ACP         0.2010
     40 H2'         0.0002   -0.0084   -0.0014 H         1 ACP        -0.0393
     41 HO2'        0.8091    0.1203    2.7213 H         1 ACP         0.2010
     42 H1'         1.7718    1.9211    1.6015 H         1 ACP        -0.0393
     43 H8         -1.6458    1.4054   -0.1318 H         1 ACP         0.0000
     44 HN61       -2.5307    5.6598   -1.4199 H         1 ACP         0.2048
     45 HN62       -1.7773    7.2266   -1.5938 H         1 ACP         0.2048
     46 H2          2.6279    6.4808   -0.1872 H         1 ACP        -0.1292
     47 H47         0.5621    7.4166   -0.9900 H         1 ACP         0.2048
@<TRIPOS>BOND
     1    1    2 2
     2    1    3 1
     3    1    4 1
     4    1    8 1
     5    4   32 1
     6    5    6 2
     7    5    7 1
     8    5    8 1
     9    5   12 1
    10    8   33 1
    11    8   34 1
    12    9   10 2
    13    9   11 1
    14    9   12 1
    15    9   13 1
    16   13   14 1
    17   14   15 1
    18   14   35 1
    19   14   36 1
    20   15   16 1
    21   15   17 1
    22   15   37 1
    23   16   21 1
    24   17   18 1
    25   17   19 1
    26   17   38 1
    27   18   39 1
    28   19   20 1
    29   19   21 1
    30   19   40 1
    31   20   41 1
    32   21   22 1
    33   21   42 1
    34   22   23 ar
    35   22   31 ar
    36   23   24 ar
    37   23   43 1
    38   24   25 ar
    39   25   26 ar
    40   25   31 ar
    41   26   27 1
    42   26   28 ar
    43   27   44 1
    44   27   45 1
    45   28   29 ar
    46   28   47 1
    47   29   30 ar
    48   29   46 1
    49   30   31 ar
@<TRIPOS>SUBSTRUCTURE
     1 ACP         1 GROUP 0 A     ****
@<TRIPOS>MOLECULE
[[5-(6-amino-1,8-dihydropurine-6,8-diylium-7-id-9-yl)-3,4-dihydroxy-tetrahydrofuran-2-yl]methoxy-oxido-phosphoryl]oxy-[[hydroxy(oxido)phosphoryl]methyl]phosphinate
   47    49     1     0     0
SMALL
USER_CHARGES

@<TRIPOS>ATOM
      1 PG          4.3605   -3.3605    2.3983 P.3       1 ACP        -1.2804
      2 O1G         4.9352   -1.9661    2.4882 O.co2     1 ACP         0.3195
      3 O2G         3.3496   -3.7465    1.3431 O.co2     1 ACP         0.3195
      4 O3G         5.5752   -4.4488    2.4062 O.3       1 ACP         0.0326
      5 PB          2.7996   -5.3800    4.4134 P.3       1 ACP        -1.2804
      6 O1B         2.3339   -5.3288    5.8498 O.co2     1 ACP         0.3195
      7 O2B         3.7039   -6.4765    3.8996 O.co2     1 ACP         0.3195
      8 C3B         3.6248   -3.7688    4.0428 C.3       1 ACP         0.8942
      9 PA          0.1768   -6.1246    3.2414 P.3       1 ACP        -1.1062
     10 O1A        -0.6500   -5.9983    4.5024 O.co2     1 ACP         0.3195
     11 O2A         0.5817   -7.4857    2.7181 O.co2     1 ACP         0.3195
     12 O3A         1.5224   -5.2153    3.4135 O.3       1 ACP         0.4672
     13 O5'        -0.5697   -5.2855    2.0524 O.3       1 ACP         0.1618
     14 C5'        -0.7840   -3.8935    2.2172 C.3       1 ACP         0.1504
     15 C4'        -0.0724   -3.1466    1.1027 C.3       1 ACP         0.1111
     16 O4'        -0.8674   -3.1929   -0.0945 O.3       1 ACP        -0.1436
     17 C3'         0.1338   -1.6715    1.4027 C.3       1 ACP         0.1111
     18 O3'         1.2893   -1.4445    2.1808 O.3       1 ACP        -0.2728
     19 C2'         0.2158   -1.0724    0.0128 C.3       1 ACP         0.1111
     20 O2'         1.5141   -1.2448   -0.5513 O.3       1 ACP        -0.2728
     21 C1'        -0.7897   -1.9176   -0.7583 C.3       1 ACP         0.2693
     22 N9         -2.1040   -1.3333   -0.7704 N.pl3     1 ACP        -0.3222
     23 C8         -3.2124   -1.5345    0.2719 C.ar      1 ACP         0.1640
     24 N7         -4.2964   -0.8234   -0.0828 N.2       1 ACP        -0.1640
     25 C5         -3.8754   -0.2386   -1.2478 C.ar      1 ACP         0.0820
     26 C6         -4.7432    0.6719   -2.0470 C.ar      1 ACP         0.1640
     27 N6         -5.9725    0.9415   -1.6366 N.pl3     1 ACP        -0.4916
     28 N1         -4.1703    1.1517   -3.1536 N.pl3     1 ACP        -0.4390
     29 C2         -2.8174    0.7994   -3.5215 C.ar      1 ACP         0.5691
     30 N3         -2.0475    0.0097   -2.8393 N.ar      1 ACP        -0.4283
     31 C4         -2.6278   -0.4836   -1.7071 C.ar      1 ACP         0.2226
     32 HOG3        6.2455   -4.4068    1.6912 H         1 ACP         0.2010
     33 H3B1        2.8852   -2.9865    4.2467 H         1 ACP        -0.0393
     34 H3B2        4.4276   -3.6608    4.7805 H         1 ACP        -0.0393
     35 H5'1       -1.8599   -3.6946    2.1849 H         1 ACP        -0.0393
     36 H5'2       -0.3934   -3.5881    3.1930 H         1 ACP        -0.0393
     37 H4'         0.8883   -3.6447    0.8783 H         1 ACP        -0.0393
     38 H3'        -0.7368   -1.2359    1.9871 H         1 ACP        -0.0393
     39 HO3'        1.3407   -0.4871    2.3218 H         1 ACP         0.2010
     40 H2'        -0.0343   -0.0280    0.0196 H         1 ACP        -0.0393
     41 HO2'        2.1443   -0.7955    0.0378 H         1 ACP         0.2010
     42 H1'        -0.5175   -2.1046   -1.7826 H         1 ACP        -0.0393
     43 H8         -3.2310   -2.1319    1.1889 H         1 ACP         0.0000
     44 HN61       -6.3230    0.5316   -0.7829 H         1 ACP         0.2048
     45 HN62       -6.5628    1.5584   -2.1760 H         1 ACP         0.2048
     46 H2         -2.4822    1.2710   -4.4579 H         1 ACP        -0.1292
     47 H47        -4.7200    1.7780   -3.7346 H         1 ACP         0.2048
@<TRIPOS>BOND
     1    1    2 2
     2    1    3 1
     3    1    4 1
     4    1    8 1
     5    4   32 1
     6    5    6 2
     7    5    7 1
     8    5    8 1
     9    5   12 1
    10    8   33 1
    11    8   34 1
    12    9   10 2
    13    9   11 1
    14    9   12 1
    15    9   13 1
    16   13   14 1
    17   14   15 1
    18   14   35 1
    19   14   36 1
    20   15   16 1
    21   15   17 1
    22   15   37 1
    23   16   21 1
    24   17   18 1
    25   17   19 1
    26   17   38 1
    27   18   39 1
    28   19   20 1
    29   19   21 1
    30   19   40 1
    31   20   41 1
    32   21   22 1
    33   21   42 1
    34   22   23 ar
    35   22   31 ar
    36   23   24 ar
    37   23   43 1
    38   24   25 ar
    39   25   26 ar
    40   25   31 ar
    41   26   27 1
    42   26   28 ar
    43   27   44 1
    44   27   45 1
    45   28   29 ar
    46   28   47 1
    47   29   30 ar
    48   29   46 1
    49   30   31 ar
@<TRIPOS>SUBSTRUCTURE
     1 ACP         1 GROUP 0 A     ****
@<TRIPOS>MOLECULE
[[5-(6-amino-1,8-dihydropurine-6,8-diylium-7-id-9-yl)-3,4-dihydroxy-tetrahydrofuran-2-yl]methoxy-oxido-phosphoryl]oxy-[[hydroxy(oxido)phosphoryl]methyl]phosphinate
   47    49     1     0     0
SMALL
USER_CHARGES

@<TRIPOS>ATOM
      1 PG          0.0352   -0.3805   -6.7964 P.3       1 ACP        -1.2804
      2 O1G         0.6145    0.4537   -7.9151 O.co2     1 ACP         0.3195
      3 O2G        -0.1919    0.1796   -5.4111 O.co2     1 ACP         0.3195
      4 O3G        -1.3287   -1.1094   -7.3144 O.3       1 ACP         0.0326
      5 PB          2.8931   -1.8182   -6.2129 P.3       1 ACP        -1.2804
      6 O1B         3.5735   -1.0368   -7.3125 O.co2     1 ACP         0.3195
      7 O2B         3.3217   -3.2181   -5.8373 O.co2     1 ACP         0.3195
      8 C3B         1.0913   -1.8853   -6.6168 C.3       1 ACP         0.8942
      9 PA          3.9534   -0.2075   -3.9573 P.3       1 ACP        -1.1062
     10 O1A         4.6225    0.8729   -4.7788 O.co2     1 ACP         0.3195
     11 O2A         4.7732   -1.3027   -3.3100 O.co2     1 ACP         0.3195
     12 O3A         2.7896   -0.9020   -4.8683 O.3       1 ACP         0.4672
     13 O5'         3.0198    0.5138   -2.8245 O.3       1 ACP         0.1618
     14 C5'         2.2816   -0.2918   -1.9206 C.3       1 ACP         0.1504
     15 C4'         2.7248    0.0226   -0.4980 C.3       1 ACP         0.1111
     16 O4'         2.4697    1.4219   -0.2462 O.3       1 ACP        -0.1436
     17 C3'         1.9404   -0.7419    0.5596 C.3       1 ACP         0.1111
     18 O3'         2.7418   -0.8086    1.7389 O.3       1 ACP        -0.2728
     19 C2'         0.7477    0.1630    0.7858 C.3       1 ACP         0.1111
     20 O2'         0.1373   -0.0577    2.0407 O.3       1 ACP        -0.2728
     21 C1'         1.3733    1.5427    0.6747 C.3       1 ACP         0.2693
     22 N9          0.4520    2.5240    0.1767 N.pl3     1 ACP        -0.3222
     23 C8         -1.0660    2.5608    0.3999 C.ar      1 ACP         0.1640
     24 N7         -1.5852    3.6333   -0.2221 N.2       1 ACP        -0.1640
     25 C5         -0.4682    4.1996   -0.7771 C.ar      1 ACP         0.0820
     26 C6         -0.5216    5.4476   -1.5899 C.ar      1 ACP         0.1640
     27 N6         -1.6813    6.0510   -1.7982 N.pl3     1 ACP        -0.4916
     28 N1          0.6621    5.8575   -2.0523 N.pl3     1 ACP        -0.4390
     29 C2          1.8795    5.1301   -1.7717 C.ar      1 ACP         0.5691
     30 N3          1.9458    4.0434   -1.0670 N.ar      1 ACP        -0.4283
     31 C4          0.7388    3.6199   -0.5917 C.ar      1 ACP         0.2226
     32 HOG3       -2.0724   -0.5474   -7.6198 H         1 ACP         0.2010
     33 H3B1        1.0048   -2.4311   -7.5629 H         1 ACP        -0.0393
     34 H3B2        0.6275   -2.5024   -5.8392 H         1 ACP        -0.0393
     35 H5'1        1.2153   -0.0781   -2.0454 H         1 ACP        -0.0393
     36 H5'2        2.4645   -1.3454   -2.1547 H         1 ACP        -0.0393
     37 H4'         3.8046   -0.1390   -0.4011 H         1 ACP        -0.0393
     38 H3'         1.6787   -1.7627    0.2719 H         1 ACP        -0.0393
     39 HO3'        2.2231   -1.2979    2.3952 H         1 ACP         0.2010
     40 H2'         0.0002   -0.0084   -0.0014 H         1 ACP        -0.0393
     41 HO2'       -0.1554   -0.9852    2.0577 H         1 ACP         0.2010
     42 H1'         1.7718    1.9211    1.6015 H         1 ACP        -0.0393
     43 H8         -1.7235    1.8833    0.9537 H         1 ACP         0.0000
     44 HN61       -2.5296    5.6672   -1.4072 H         1 ACP         0.2048
     45 HN62       -1.7205    6.8969   -2.3483 H         1 ACP         0.2048
     46 H2          2.7750    5.5878   -2.2190 H         1 ACP        -0.1292
     47 H47         0.6808    6.7046   -2.6128 H         1 ACP         0.2048
@<TRIPOS>BOND
     1    1    2 2
     2    1    3 1
     3    1    4 1
     4    1    8 1
     5    4   32 1
     6    5    6 2
     7    5    7 1
     8    5    8 1
     9    5   12 1
    10    8   33 1
    11    8   34 1
    12    9   10 2
    13    9   11 1
    14    9   12 1
    15    9   13 1
    16   13   14 1
    17   14   15 1
    18   14   35 1
    19   14   36 1
    20   15   16 1
    21   15   17 1
    22   15   37 1
    23   16   21 1
    24   17   18 1
    25   17   19 1
    26   17   38 1
    27   18   39 1
    28   19   20 1
    29   19   21 1
    30   19   40 1
    31   20   41 1
    32   21   22 1
    33   21   42 1
    34   22   23 ar
    35   22   31 ar
    36   23   24 ar
    37   23   43 1
    38   24   25 ar
    39   25   26 ar
    40   25   31 ar
    41   26   27 1
    42   26   28 ar
    43   27   44 1
    44   27   45 1
    45   28   29 ar
    46   28   47 1
    47   29   30 ar
    48   29   46 1
    49   30   31 ar
@<TRIPOS>SUBSTRUCTURE
     1 ACP         1 GROUP 0 A     ****
@<TRIPOS>MOLECULE
[[5-(6-amino-1,8-dihydropurine-6,8-diylium-7-id-9-yl)-3,4-dihydroxy-tetrahydrofuran-2-yl]methoxy-oxido-phosphoryl]oxy-[[hydroxy(oxido)phosphoryl]methyl]phosphinate
   47    49     1     0     0
SMALL
USER_CHARGES

@<TRIPOS>ATOM
      1 PG          3.8246   -4.7482   -1.6567 P.3       1 ACP        -1.2804
      2 O1G         3.4368   -3.4182   -1.0540 O.co2     1 ACP         0.3195
      3 O2G         4.3663   -5.8830   -0.8182 O.co2     1 ACP         0.3195
      4 O3G         2.6027   -5.2989   -2.5860 O.3       1 ACP         0.0326
      5 PB          4.6852   -3.3686   -4.4730 P.3       1 ACP        -1.2804
      6 O1B         3.5263   -4.0061   -5.2032 O.co2     1 ACP         0.3195
      7 O2B         6.0021   -3.0758   -5.1545 O.co2     1 ACP         0.3195
      8 C3B         5.0522   -4.4177   -2.9969 C.3       1 ACP         0.8942
      9 PA          3.4821   -0.6660   -4.2377 P.3       1 ACP        -1.1062
     10 O1A         2.1119   -1.0079   -4.7812 O.co2     1 ACP         0.3195
     11 O2A         4.4908    0.0668   -5.0956 O.co2     1 ACP         0.3195
     12 O3A         4.1739   -2.0373   -3.6828 O.3       1 ACP         0.4672
     13 O5'         3.2883    0.1336   -2.8242 O.3       1 ACP         0.1618
     14 C5'         2.2816   -0.2918   -1.9206 C.3       1 ACP         0.1504
     15 C4'         2.7248    0.0226   -0.4980 C.3       1 ACP         0.1111
     16 O4'         2.4697    1.4219   -0.2462 O.3       1 ACP        -0.1436
     17 C3'         1.9404   -0.7419    0.5596 C.3       1 ACP         0.1111
     18 O3'         2.7418   -0.8086    1.7389 O.3       1 ACP        -0.2728
     19 C2'         0.7477    0.1630    0.7858 C.3       1 ACP         0.1111
     20 O2'         0.1373   -0.0577    2.0407 O.3       1 ACP        -0.2728
     21 C1'         1.3733    1.5427    0.6747 C.3       1 ACP         0.2693
     22 N9          0.4520    2.5240    0.1767 N.pl3     1 ACP        -0.3222
     23 C8         -1.0660    2.5608    0.3999 C.ar      1 ACP         0.1640
     24 N7         -1.5852    3.6333   -0.2221 N.2       1 ACP        -0.1640
     25 C5         -0.4682    4.1996   -0.7771 C.ar      1 ACP         0.0820
     26 C6         -0.5216    5.4476   -1.5899 C.ar      1 ACP         0.1640
     27 N6         -1.6813    6.0510   -1.7982 N.pl3     1 ACP        -0.4916
     28 N1          0.6621    5.8575   -2.0523 N.pl3     1 ACP        -0.4390
     29 C2          1.8795    5.1301   -1.7717 C.ar      1 ACP         0.5691
     30 N3          1.9458    4.0434   -1.0670 N.ar      1 ACP        -0.4283
     31 C4          0.7388    3.6199   -0.5917 C.ar      1 ACP         0.2226
     32 HOG3        1.7307   -5.4582   -2.1660 H         1 ACP         0.2010
     33 H3B1        5.3543   -5.3988   -3.3801 H         1 ACP        -0.0393
     34 H3B2        5.9287   -3.9702   -2.5153 H         1 ACP        -0.0393
     35 H5'1        1.3500    0.2325   -2.1560 H         1 ACP        -0.0393
     36 H5'2        2.1267   -1.3683   -2.0444 H         1 ACP        -0.0393
     37 H4'         3.8046   -0.1390   -0.4011 H         1 ACP        -0.0393
     38 H3'         1.6787   -1.7627    0.2719 H         1 ACP        -0.0393
     39 HO3'        3.5553   -1.2733    1.4913 H         1 ACP         0.2010
     40 H2'         0.0002   -0.0084   -0.0014 H         1 ACP        -0.0393
     41 HO2'       -0.1554   -0.9852    2.0577 H         1 ACP         0.2010
     42 H1'         1.7718    1.9211    1.6015 H         1 ACP        -0.0393
     43 H8         -1.7235    1.8833    0.9537 H         1 ACP         0.0000
     44 HN61       -2.5296    5.6672   -1.4072 H         1 ACP         0.2048
     45 HN62       -1.7205    6.8969   -2.3483 H         1 ACP         0.2048
     46 H2          2.7750    5.5878   -2.2190 H         1 ACP        -0.1292
     47 H47         0.6808    6.7046   -2.6128 H         1 ACP         0.2048
@<TRIPOS>BOND
     1    1    2 2
     2    1    3 1
     3    1    4 1
     4    1    8 1
     5    4   32 1
     6    5    6 2
     7    5    7 1
     8    5    8 1
     9    5   12 1
    10    8   33 1
    11    8   34 1
    12    9   10 2
    13    9   11 1
    14    9   12 1
    15    9   13 1
    16   13   14 1
    17   14   15 1
    18   14   35 1
    19   14   36 1
    20   15   16 1
    21   15   17 1
    22   15   37 1
    23   16   21 1
    24   17   18 1
    25   17   19 1
    26   17   38 1
    27   18   39 1
    28   19   20 1
    29   19   21 1
    30   19   40 1
    31   20   41 1
    32   21   22 1
    33   21   42 1
    34   22   23 ar
    35   22   31 ar
    36   23   24 ar
    37   23   43 1
    38   24   25 ar
    39   25   26 ar
    40   25   31 ar
    41   26   27 1
    42   26   28 ar
    43   27   44 1
    44   27   45 1
    45   28   29 ar
    46   28   47 1
    47   29   30 ar
    48   29   46 1
    49   30   31 ar
@<TRIPOS>SUBSTRUCTURE
     1 ACP         1 GROUP 0 A     ****
@<TRIPOS>MOLECULE
[[5-(6-amino-1,8-dihydropurine-6,8-diylium-7-id-9-yl)-3,4-dihydroxy-tetrahydrofuran-2-yl]methoxy-oxido-phosphoryl]oxy-[[hydroxy(oxido)phosphoryl]methyl]phosphinate
   47    49     1     0     0
SMALL
USER_CHARGES

@<TRIPOS>ATOM
      1 PG         -2.7605   -8.0070    1.5486 P.3       1 ACP        -1.2804
      2 O1G        -3.6548   -9.1905    1.2618 O.co2     1 ACP         0.3195
      3 O2G        -2.2841   -7.0767    0.4569 O.co2     1 ACP         0.3195
      4 O3G        -3.3975   -7.1291    2.7665 O.3       1 ACP         0.0326
      5 PB          0.1206   -7.5481    2.9852 P.3       1 ACP        -1.2804
      6 O1B         0.6881   -6.8753    1.7572 O.co2     1 ACP         0.3195
      7 O2B         0.9798   -8.3596    3.9273 O.co2     1 ACP         0.3195
      8 C3B        -1.2635   -8.6379    2.4279 C.3       1 ACP         0.8942
      9 PA         -0.3451   -5.0629    4.5388 P.3       1 ACP        -1.1062
     10 O1A         0.8520   -5.3059    5.4318 O.co2     1 ACP         0.3195
     11 O2A        -1.5957   -4.4100    5.0867 O.co2     1 ACP         0.3195
     12 O3A        -0.7639   -6.4786    3.8407 O.3       1 ACP         0.4672
     13 O5'         0.1597   -4.2446    3.2157 O.3       1 ACP         0.1618
     14 C5'        -0.7840   -3.8935    2.2172 C.3       1 ACP         0.1504
     15 C4'        -0.0724   -3.1466    1.1027 C.3       1 ACP         0.1111
     16 O4'        -0.8674   -3.1929   -0.0945 O.3       1 ACP        -0.1436
     17 C3'         0.1338   -1.6715    1.4027 C.3       1 ACP         0.1111
     18 O3'         1.2893   -1.4445    2.1808 O.3       1 ACP        -0.2728
     19 C2'         0.2158   -1.0724    0.0128 C.3       1 ACP         0.1111
     20 O2'         1.5141   -1.2448   -0.5513 O.3       1 ACP        -0.2728
     21 C1'        -0.7897   -1.9176   -0.7583 C.3       1 ACP         0.2693
     22 N9         -2.1040   -1.3333   -0.7704 N.pl3     1 ACP        -0.3222
     23 C8         -3.2124   -1.5345    0.2719 C.ar      1 ACP         0.1640
     24 N7         -4.2964   -0.8234   -0.0828 N.2       1 ACP        -0.1640
     25 C5         -3.8754   -0.2386   -1.2478 C.ar      1 ACP         0.0820
     26 C6         -4.7432    0.6719   -2.0470 C.ar      1 ACP         0.1640
     27 N6         -5.9725    0.9415   -1.6366 N.pl3     1 ACP        -0.4916
     28 N1         -4.1703    1.1517   -3.1536 N.pl3     1 ACP        -0.4390
     29 C2         -2.8174    0.7994   -3.5215 C.ar      1 ACP         0.5691
     30 N3         -2.0475    0.0097   -2.8393 N.ar      1 ACP        -0.4283
     31 C4         -2.6278   -0.4836   -1.7071 C.ar      1 ACP         0.2226
     32 HOG3       -4.2922   -6.7449    2.6479 H         1 ACP         0.2010
     33 H3B1       -0.8195   -9.3917    1.7682 H         1 ACP        -0.0393
     34 H3B2       -1.6221   -9.1571    3.3236 H         1 ACP        -0.0393
     35 H5'1       -1.2472   -4.8069    1.8308 H         1 ACP        -0.0393
     36 H5'2       -1.5578   -3.2634    2.6671 H         1 ACP        -0.0393
     37 H4'         0.8883   -3.6447    0.8783 H         1 ACP        -0.0393
     38 H3'        -0.7368   -1.2359    1.9871 H         1 ACP        -0.0393
     39 HO3'        1.3407   -0.4871    2.3218 H         1 ACP         0.2010
     40 H2'        -0.0343   -0.0280    0.0196 H         1 ACP        -0.0393
     41 HO2'        2.1443   -0.7955    0.0378 H         1 ACP         0.2010
     42 H1'        -0.5175   -2.1046   -1.7826 H         1 ACP        -0.0393
     43 H8         -3.2310   -2.1319    1.1889 H         1 ACP         0.0000
     44 HN61       -6.5630    1.5580   -2.1762 H         1 ACP         0.2048
     45 HN62       -6.3231    0.5311   -0.7832 H         1 ACP         0.2048
     46 H2         -2.4822    1.2710   -4.4579 H         1 ACP        -0.1292
     47 H47        -4.7200    1.7780   -3.7346 H         1 ACP         0.2048
@<TRIPOS>BOND
     1    1    2 2
     2    1    3 1
     3    1    4 1
     4    1    8 1
     5    4   32 1
     6    5    6 2
     7    5    7 1
     8    5    8 1
     9    5   12 1
    10    8   33 1
    11    8   34 1
    12    9   10 2
    13    9   11 1
    14    9   12 1
    15    9   13 1
    16   13   14 1
    17   14   15 1
    18   14   35 1
    19   14   36 1
    20   15   16 1
    21   15   17 1
    22   15   37 1
    23   16   21 1
    24   17   18 1
    25   17   19 1
    26   17   38 1
    27   18   39 1
    28   19   20 1
    29   19   21 1
    30   19   40 1
    31   20   41 1
    32   21   22 1
    33   21   42 1
    34   22   23 ar
    35   22   31 ar
    36   23   24 ar
    37   23   43 1
    38   24   25 ar
    39   25   26 ar
    40   25   31 ar
    41   26   27 1
    42   26   28 ar
    43   27   44 1
    44   27   45 1
    45   28   29 ar
    46   28   47 1
    47   29   30 ar
    48   29   46 1
    49   30   31 ar
@<TRIPOS>SUBSTRUCTURE
     1 ACP         1 GROUP 0 A     ****
@<TRIPOS>MOLECULE
[[5-(6-amino-1,8-dihydropurine-6,8-diylium-7-id-9-yl)-3,4-dihydroxy-tetrahydrofuran-2-yl]methoxy-oxido-phosphoryl]oxy-[[hydroxy(oxido)phosphoryl]methyl]phosphinate
   47    49     1     0     0
SMALL
USER_CHARGES

@<TRIPOS>ATOM
      1 PG          5.7671   -4.2238   -2.7362 P.3       1 ACP        -1.2804
      2 O1G         6.5328   -5.4385   -3.2064 O.co2     1 ACP         0.3195
      3 O2G         4.2695   -4.1044   -2.9012 O.co2     1 ACP         0.3195
      4 O3G         6.1679   -3.8958   -1.1897 O.3       1 ACP         0.0326
      5 PB          5.9253   -1.0169   -3.2521 P.3       1 ACP        -1.2804
      6 O1B         6.7996   -0.0943   -4.0688 O.co2     1 ACP         0.3195
      7 O2B         5.7410   -0.8407   -1.7624 O.co2     1 ACP         0.3195
      8 C3B         6.5296   -2.7406   -3.5306 C.3       1 ACP         0.8942
      9 PA          3.3324   -0.0529   -4.3266 P.3       1 ACP        -1.1062
     10 O1A         2.0985   -0.7700   -4.8296 O.co2     1 ACP         0.3195
     11 O2A         3.9793    1.0390   -5.1511 O.co2     1 ACP         0.3195
     12 O3A         4.4675   -1.1702   -3.9660 O.3       1 ACP         0.4672
     13 O5'         3.0198    0.5138   -2.8245 O.3       1 ACP         0.1618
     14 C5'         2.2816   -0.2918   -1.9206 C.3       1 ACP         0.1504
     15 C4'         2.7248    0.0226   -0.4980 C.3       1 ACP         0.1111
     16 O4'         2.4697    1.4219   -0.2462 O.3       1 ACP        -0.1436
     17 C3'         1.9404   -0.7419    0.5596 C.3       1 ACP         0.1111
     18 O3'         2.7418   -0.8086    1.7389 O.3       1 ACP        -0.2728
     19 C2'         0.7477    0.1630    0.7858 C.3       1 ACP         0.1111
     20 O2'         0.1373   -0.0577    2.0407 O.3       1 ACP        -0.2728
     21 C1'         1.3733    1.5427    0.6747 C.3       1 ACP         0.2693
     22 N9          0.4520    2.5240    0.1767 N.pl3     1 ACP        -0.3222
     23 C8         -0.7463    2.2774   -0.7501 C.ar      1 ACP         0.1640
     24 N7         -1.3714    3.4419   -0.9948 N.2       1 ACP        -0.1640
     25 C5         -0.6104    4.3223   -0.2723 C.ar      1 ACP         0.0820
     26 C6         -0.9062    5.7820   -0.2194 C.ar      1 ACP         0.1640
     27 N6         -1.9385    6.2713   -0.8881 N.pl3     1 ACP        -0.4916
     28 N1         -0.0613    6.4906    0.5336 N.pl3     1 ACP        -0.4390
     29 C2          1.0416    5.8662    1.2291 C.ar      1 ACP         0.5691
     30 N3          1.3146    4.5989    1.1954 N.ar      1 ACP        -0.4283
     31 C4          0.4541    3.8697    0.4273 C.ar      1 ACP         0.2226
     32 HOG3        5.9978   -4.5796   -0.5073 H         1 ACP         0.2010
     33 H3B1        6.4808   -2.9165   -4.6110 H         1 ACP        -0.0393
     34 H3B2        7.5877   -2.7422   -3.2461 H         1 ACP        -0.0393
     35 H5'1        1.2153   -0.0781   -2.0454 H         1 ACP        -0.0393
     36 H5'2        2.4645   -1.3454   -2.1547 H         1 ACP        -0.0393
     37 H4'         3.8046   -0.1390   -0.4011 H         1 ACP        -0.0393
     38 H3'         1.6787   -1.7627    0.2719 H         1 ACP        -0.0393
     39 HO3'        2.2231   -1.2979    2.3952 H         1 ACP         0.2010
     40 H2'         0.0002   -0.0084   -0.0014 H         1 ACP        -0.0393
     41 HO2'       -0.6132    0.5577    2.1063 H         1 ACP         0.2010
     42 H1'         1.7718    1.9211    1.6015 H         1 ACP        -0.0393
     43 H8         -1.1244    1.3534   -1.1987 H         1 ACP         0.0000
     44 HN61       -2.5259    5.6573   -1.4336 H         1 ACP         0.2048
     45 HN62       -2.1416    7.2600   -0.8539 H         1 ACP         0.2048
     46 H2          1.6509    6.5764    1.8088 H         1 ACP        -0.1292
     47 H47        -0.2190    7.4917    0.6033 H         1 ACP         0.2048
@<TRIPOS>BOND
     1    1    2 2
     2    1    3 1
     3    1    4 1
     4    1    8 1
     5    4   32 1
     6    5    6 2
     7    5    7 1
     8    5    8 1
     9    5   12 1
    10    8   33 1
    11    8   34 1
    12    9   10 2
    13    9   11 1
    14    9   12 1
    15    9   13 1
    16   13   14 1
    17   14   15 1
    18   14   35 1
    19   14   36 1
    20   15   16 1
    21   15   17 1
    22   15   37 1
    23   16   21 1
    24   17   18 1
    25   17   19 1
    26   17   38 1
    27   18   39 1
    28   19   20 1
    29   19   21 1
    30   19   40 1
    31   20   41 1
    32   21   22 1
    33   21   42 1
    34   22   23 ar
    35   22   31 ar
    36   23   24 ar
    37   23   43 1
    38   24   25 ar
    39   25   26 ar
    40   25   31 ar
    41   26   27 1
    42   26   28 ar
    43   27   44 1
    44   27   45 1
    45   28   29 ar
    46   28   47 1
    47   29   30 ar
    48   29   46 1
    49   30   31 ar
@<TRIPOS>SUBSTRUCTURE
     1 ACP         1 GROUP 0 A     ****
@<TRIPOS>MOLECULE
[[5-(6-amino-1,8-dihydropurine-6,8-diylium-7-id-9-yl)-3,4-dihydroxy-tetrahydrofuran-2-yl]methoxy-oxido-phosphoryl]oxy-[[hydroxy(oxido)phosphoryl]methyl]phosphinate
   47    49     1     0     0
SMALL
USER_CHARGES

@<TRIPOS>ATOM
      1 PG          6.5119   -0.8606   -5.1777 P.3       1 ACP        -1.2804
      2 O1G         6.0830   -0.8104   -3.7298 O.co2     1 ACP         0.3195
      3 O2G         7.6546   -0.0248   -5.7068 O.co2     1 ACP         0.3195
      4 O3G         6.7265   -2.4140   -5.6257 O.3       1 ACP         0.0326
      5 PB          3.4884   -1.5062   -6.1864 P.3       1 ACP        -1.2804
      6 O1B         3.8678   -2.9076   -6.6045 O.co2     1 ACP         0.3195
      7 O2B         2.4145   -0.7171   -6.8993 O.co2     1 ACP         0.3195
      8 C3B         5.0287   -0.4859   -6.2132 C.3       1 ACP         0.8942
      9 PA          2.1362   -2.2698   -3.6575 P.3       1 ACP        -1.1062
     10 O1A         2.4953   -3.7397   -3.6734 O.co2     1 ACP         0.3195
     11 O2A         0.7453   -1.8118   -4.0395 O.co2     1 ACP         0.3195
     12 O3A         3.2175   -1.4646   -4.5792 O.3       1 ACP         0.4672
     13 O5'         2.5237   -1.6631   -2.1889 O.3       1 ACP         0.1618
     14 C5'         2.2816   -0.2918   -1.9206 C.3       1 ACP         0.1504
     15 C4'         2.7248    0.0226   -0.4980 C.3       1 ACP         0.1111
     16 O4'         2.4697    1.4219   -0.2462 O.3       1 ACP        -0.1436
     17 C3'         1.9404   -0.7419    0.5596 C.3       1 ACP         0.1111
     18 O3'         2.7418   -0.8086    1.7389 O.3       1 ACP        -0.2728
     19 C2'         0.7477    0.1630    0.7858 C.3       1 ACP         0.1111
     20 O2'         0.1373   -0.0577    2.0407 O.3       1 ACP        -0.2728
     21 C1'         1.3733    1.5427    0.6747 C.3       1 ACP         0.2693
     22 N9          0.4520    2.5240    0.1767 N.pl3     1 ACP        -0.3222
     23 C8         -0.4598    3.4379    1.0068 C.ar      1 ACP         0.1640
     24 N7         -1.1770    4.2228    0.1845 N.2       1 ACP        -0.1640
     25 C5         -0.7330    3.8149   -1.0455 C.ar      1 ACP         0.0820
     26 C6         -1.2413    4.4029   -2.3169 C.ar      1 ACP         0.1640
     27 N6         -2.1578    5.3575   -2.2831 N.pl3     1 ACP        -0.4916
     28 N1         -0.6977    3.8860   -3.4216 N.pl3     1 ACP        -0.4390
     29 C2          0.3002    2.8419   -3.3591 C.ar      1 ACP         0.5691
     30 N3          0.7548    2.3183   -2.2631 N.ar      1 ACP        -0.4283
     31 C4          0.2027    2.8430   -1.1309 C.ar      1 ACP         0.2226
     32 HOG3        7.3937   -2.9509   -5.1473 H         1 ACP         0.2010
     33 H3B1        5.3781   -0.4776   -7.2516 H         1 ACP        -0.0393
     34 H3B2        4.7219    0.5356   -5.9627 H         1 ACP        -0.0393
     35 H5'1        2.8429    0.3140   -2.6391 H         1 ACP        -0.0393
     36 H5'2        1.2125   -0.0906   -2.0420 H         1 ACP        -0.0393
     37 H4'         3.8046   -0.1390   -0.4011 H         1 ACP        -0.0393
     38 H3'         1.6787   -1.7627    0.2719 H         1 ACP        -0.0393
     39 HO3'        2.2231   -1.2979    2.3952 H         1 ACP         0.2010
     40 H2'         0.0002   -0.0084   -0.0014 H         1 ACP        -0.0393
     41 HO2'       -0.6132    0.5577    2.1063 H         1 ACP         0.2010
     42 H1'         1.7718    1.9211    1.6015 H         1 ACP        -0.0393
     43 H8         -0.5892    3.5248    2.0902 H         1 ACP         0.0000
     44 HN61       -2.5128    5.6880   -1.3974 H         1 ACP         0.2048
     45 HN62       -2.5040    5.7581   -3.1431 H         1 ACP         0.2048
     46 H2          0.6550    2.5166   -4.3490 H         1 ACP        -0.1292
     47 H47        -1.0101    4.2527   -4.3160 H         1 ACP         0.2048
@<TRIPOS>BOND
     1    1    2 2
     2    1    3 1
     3    1    4 1
     4    1    8 1
     5    4   32 1
     6    5    6 2
     7    5    7 1
     8    5    8 1
     9    5   12 1
    10    8   33 1
    11    8   34 1
    12    9   10 2
    13    9   11 1
    14    9   12 1
    15    9   13 1
    16   13   14 1
    17   14   15 1
    18   14   35 1
    19   14   36 1
    20   15   16 1
    21   15   17 1
    22   15   37 1
    23   16   21 1
    24   17   18 1
    25   17   19 1
    26   17   38 1
    27   18   39 1
    28   19   20 1
    29   19   21 1
    30   19   40 1
    31   20   41 1
    32   21   22 1
    33   21   42 1
    34   22   23 ar
    35   22   31 ar
    36   23   24 ar
    37   23   43 1
    38   24   25 ar
    39   25   26 ar
    40   25   31 ar
    41   26   27 1
    42   26   28 ar
    43   27   44 1
    44   27   45 1
    45   28   29 ar
    46   28   47 1
    47   29   30 ar
    48   29   46 1
    49   30   31 ar
@<TRIPOS>SUBSTRUCTURE
     1 ACP         1 GROUP 0 A     ****
@<TRIPOS>MOLECULE
[[5-(6-amino-1,8-dihydropurine-6,8-diylium-7-id-9-yl)-3,4-dihydroxy-tetrahydrofuran-2-yl]methoxy-oxido-phosphoryl]oxy-[[hydroxy(oxido)phosphoryl]methyl]phosphinate
   47    49     1     0     0
SMALL
USER_CHARGES

@<TRIPOS>ATOM
      1 PG          4.4673   -0.9070   -6.7860 P.3       1 ACP        -1.2804
      2 O1G         4.7822   -0.7292   -5.3190 O.co2     1 ACP         0.3195
      3 O2G         5.1103   -0.0537   -7.8550 O.co2     1 ACP         0.3195
      4 O3G         4.6207   -2.4806   -7.1862 O.3       1 ACP         0.0326
      5 PB          1.4292   -1.8769   -6.1501 P.3       1 ACP        -1.2804
      6 O1B         1.7224   -3.2845   -6.6140 O.co2     1 ACP         0.3195
      7 O2B         0.0612   -1.2507   -6.2951 O.co2     1 ACP         0.3195
      8 C3B         2.6372   -0.7568   -6.9869 C.3       1 ACP         0.8942
      9 PA          1.5537   -2.4539   -3.2418 P.3       1 ACP        -1.1062
     10 O1A         2.0300   -3.8868   -3.3414 O.co2     1 ACP         0.3195
     11 O2A         0.1072   -2.1427   -2.9238 O.co2     1 ACP         0.3195
     12 O3A         1.9587   -1.6787   -4.6209 O.3       1 ACP         0.4672
     13 O5'         2.5237   -1.6631   -2.1889 O.3       1 ACP         0.1618
     14 C5'         2.2816   -0.2918   -1.9206 C.3       1 ACP         0.1504
     15 C4'         2.7248    0.0226   -0.4980 C.3       1 ACP         0.1111
     16 O4'         2.4697    1.4219   -0.2462 O.3       1 ACP        -0.1436
     17 C3'         1.9404   -0.7419    0.5596 C.3       1 ACP         0.1111
     18 O3'         2.7418   -0.8086    1.7389 O.3       1 ACP        -0.2728
     19 C2'         0.7477    0.1630    0.7858 C.3       1 ACP         0.1111
     20 O2'         0.1373   -0.0577    2.0407 O.3       1 ACP        -0.2728
     21 C1'         1.3733    1.5427    0.6747 C.3       1 ACP         0.2693
     22 N9          0.4520    2.5240    0.1767 N.pl3     1 ACP        -0.3222
     23 C8         -1.0660    2.5608    0.3999 C.ar      1 ACP         0.1640
     24 N7         -1.5852    3.6333   -0.2221 N.2       1 ACP        -0.1640
     25 C5         -0.4682    4.1996   -0.7771 C.ar      1 ACP         0.0820
     26 C6         -0.5216    5.4476   -1.5899 C.ar      1 ACP         0.1640
     27 N6         -1.6813    6.0510   -1.7982 N.pl3     1 ACP        -0.4916
     28 N1          0.6621    5.8575   -2.0523 N.pl3     1 ACP        -0.4390
     29 C2          1.8795    5.1301   -1.7717 C.ar      1 ACP         0.5691
     30 N3          1.9458    4.0434   -1.0670 N.ar      1 ACP        -0.4283
     31 C4          0.7388    3.6199   -0.5917 C.ar      1 ACP         0.2226
     32 HOG3        5.4929   -2.9118   -7.0625 H         1 ACP         0.2010
     33 H3B1        2.4426   -0.8373   -8.0622 H         1 ACP        -0.0393
     34 H3B2        2.3711    0.2612   -6.6813 H         1 ACP        -0.0393
     35 H5'1        2.8429    0.3140   -2.6391 H         1 ACP        -0.0393
     36 H5'2        1.2125   -0.0906   -2.0420 H         1 ACP        -0.0393
     37 H4'         3.8046   -0.1390   -0.4011 H         1 ACP        -0.0393
     38 H3'         1.6787   -1.7627    0.2719 H         1 ACP        -0.0393
     39 HO3'        2.2231   -1.2979    2.3952 H         1 ACP         0.2010
     40 H2'         0.0002   -0.0084   -0.0014 H         1 ACP        -0.0393
     41 HO2'       -0.1554   -0.9852    2.0577 H         1 ACP         0.2010
     42 H1'         1.7718    1.9211    1.6015 H         1 ACP        -0.0393
     43 H8         -1.7235    1.8833    0.9537 H         1 ACP         0.0000
     44 HN61       -2.5296    5.6672   -1.4072 H         1 ACP         0.2048
     45 HN62       -1.7205    6.8969   -2.3483 H         1 ACP         0.2048
     46 H2          2.7750    5.5878   -2.2190 H         1 ACP        -0.1292
     47 H47         0.6808    6.7046   -2.6128 H         1 ACP         0.2048
@<TRIPOS>BOND
     1    1    2 2
     2    1    3 1
     3    1    4 1
     4    1    8 1
     5    4   32 1
     6    5    6 2
     7    5    7 1
     8    5    8 1
     9    5   12 1
    10    8   33 1
    11    8   34 1
    12    9   10 2
    13    9   11 1
    14    9   12 1
    15    9   13 1
    16   13   14 1
    17   14   15 1
    18   14   35 1
    19   14   36 1
    20   15   16 1
    21   15   17 1
    22   15   37 1
    23   16   21 1
    24   17   18 1
    25   17   19 1
    26   17   38 1
    27   18   39 1
    28   19   20 1
    29   19   21 1
    30   19   40 1
    31   20   41 1
    32   21   22 1
    33   21   42 1
    34   22   23 ar
    35   22   31 ar
    36   23   24 ar
    37   23   43 1
    38   24   25 ar
    39   25   26 ar
    40   25   31 ar
    41   26   27 1
    42   26   28 ar
    43   27   44 1
    44   27   45 1
    45   28   29 ar
    46   28   47 1
    47   29   30 ar
    48   29   46 1
    49   30   31 ar
@<TRIPOS>SUBSTRUCTURE
     1 ACP         1 GROUP 0 A     ****
@<TRIPOS>MOLECULE
[[5-(6-amino-1,8-dihydropurine-6,8-diylium-7-id-9-yl)-3,4-dihydroxy-tetrahydrofuran-2-yl]methoxy-oxido-phosphoryl]oxy-[[hydroxy(oxido)phosphoryl]methyl]phosphinate
   47    49     1     0     0
SMALL
USER_CHARGES

@<TRIPOS>ATOM
      1 PG          4.5375   -2.7573   -6.6617 P.3       1 ACP        -1.2804
      2 O1G         4.8095   -4.2411   -6.7469 O.co2     1 ACP         0.3195
      3 O2G         5.1187   -1.8955   -5.5646 O.co2     1 ACP         0.3195
      4 O3G         4.8399   -2.0671   -8.1081 O.3       1 ACP         0.0326
      5 PB          1.8928   -0.8693   -6.5330 P.3       1 ACP        -1.2804
      6 O1B         0.3994   -1.0979   -6.5325 O.co2     1 ACP         0.3195
      7 O2B         2.5695    0.0243   -7.5468 O.co2     1 ACP         0.3195
      8 C3B         2.7050   -2.5260   -6.6326 C.3       1 ACP         0.8942
      9 PA          2.3321    0.9617   -4.2393 P.3       1 ACP        -1.1062
     10 O1A         0.8820    1.3039   -3.9746 O.co2     1 ACP         0.3195
     11 O2A         3.2385    1.9433   -4.9501 O.co2     1 ACP         0.3195
     12 O3A         2.3890   -0.4639   -5.0338 O.3       1 ACP         0.4672
     13 O5'         3.0198    0.5138   -2.8245 O.3       1 ACP         0.1618
     14 C5'         2.2816   -0.2918   -1.9206 C.3       1 ACP         0.1504
     15 C4'         2.7248    0.0226   -0.4980 C.3       1 ACP         0.1111
     16 O4'         2.4697    1.4219   -0.2462 O.3       1 ACP        -0.1436
     17 C3'         1.9404   -0.7419    0.5596 C.3       1 ACP         0.1111
     18 O3'         2.7418   -0.8086    1.7389 O.3       1 ACP        -0.2728
     19 C2'         0.7477    0.1630    0.7858 C.3       1 ACP         0.1111
     20 O2'         0.1373   -0.0577    2.0407 O.3       1 ACP        -0.2728
     21 C1'         1.3733    1.5427    0.6747 C.3       1 ACP         0.2693
     22 N9          0.4520    2.5240    0.1767 N.pl3     1 ACP        -0.3222
     23 C8         -0.7463    2.2774   -0.7501 C.ar      1 ACP         0.1640
     24 N7         -1.3714    3.4419   -0.9948 N.2       1 ACP        -0.1640
     25 C5         -0.6104    4.3223   -0.2723 C.ar      1 ACP         0.0820
     26 C6         -0.9062    5.7820   -0.2194 C.ar      1 ACP         0.1640
     27 N6         -1.9385    6.2713   -0.8881 N.pl3     1 ACP        -0.4916
     28 N1         -0.0613    6.4906    0.5336 N.pl3     1 ACP        -0.4390
     29 C2          1.0416    5.8662    1.2291 C.ar      1 ACP         0.5691
     30 N3          1.3146    4.5989    1.1954 N.ar      1 ACP        -0.4283
     31 C4          0.4541    3.8697    0.4273 C.ar      1 ACP         0.2226
     32 HOG3        5.7454   -2.1355   -8.4788 H         1 ACP         0.2010
     33 H3B1        2.3401   -3.1032   -5.7758 H         1 ACP        -0.0393
     34 H3B2        2.3148   -3.0027   -7.5386 H         1 ACP        -0.0393
     35 H5'1        1.2153   -0.0781   -2.0454 H         1 ACP        -0.0393
     36 H5'2        2.4645   -1.3454   -2.1547 H         1 ACP        -0.0393
     37 H4'         3.8046   -0.1390   -0.4011 H         1 ACP        -0.0393
     38 H3'         1.6787   -1.7627    0.2719 H         1 ACP        -0.0393
     39 HO3'        2.2231   -1.2979    2.3952 H         1 ACP         0.2010
     40 H2'         0.0002   -0.0084   -0.0014 H         1 ACP        -0.0393
     41 HO2'       -0.6132    0.5577    2.1063 H         1 ACP         0.2010
     42 H1'         1.7718    1.9211    1.6015 H         1 ACP        -0.0393
     43 H8         -1.1244    1.3534   -1.1987 H         1 ACP         0.0000
     44 HN61       -2.5259    5.6573   -1.4336 H         1 ACP         0.2048
     45 HN62       -2.1416    7.2600   -0.8539 H         1 ACP         0.2048
     46 H2          1.6509    6.5764    1.8088 H         1 ACP        -0.1292
     47 H47        -0.2190    7.4917    0.6033 H         1 ACP         0.2048
@<TRIPOS>BOND
     1    1    2 2
     2    1    3 1
     3    1    4 1
     4    1    8 1
     5    4   32 1
     6    5    6 2
     7    5    7 1
     8    5    8 1
     9    5   12 1
    10    8   33 1
    11    8   34 1
    12    9   10 2
    13    9   11 1
    14    9   12 1
    15    9   13 1
    16   13   14 1
    17   14   15 1
    18   14   35 1
    19   14   36 1
    20   15   16 1
    21   15   17 1
    22   15   37 1
    23   16   21 1
    24   17   18 1
    25   17   19 1
    26   17   38 1
    27   18   39 1
    28   19   20 1
    29   19   21 1
    30   19   40 1
    31   20   41 1
    32   21   22 1
    33   21   42 1
    34   22   23 ar
    35   22   31 ar
    36   23   24 ar
    37   23   43 1
    38   24   25 ar
    39   25   26 ar
    40   25   31 ar
    41   26   27 1
    42   26   28 ar
    43   27   44 1
    44   27   45 1
    45   28   29 ar
    46   28   47 1
    47   29   30 ar
    48   29   46 1
    49   30   31 ar
@<TRIPOS>SUBSTRUCTURE
     1 ACP         1 GROUP 0 A     ****
@<TRIPOS>MOLECULE
[[5-(6-amino-1,8-dihydropurine-6,8-diylium-7-id-9-yl)-3,4-dihydroxy-tetrahydrofuran-2-yl]methoxy-oxido-phosphoryl]oxy-[[hydroxy(oxido)phosphoryl]methyl]phosphinate
   47    49     1     0     0
SMALL
USER_CHARGES

@<TRIPOS>ATOM
      1 PG          0.0352   -0.3805   -6.7964 P.3       1 ACP        -1.2804
      2 O1G         0.0725    0.3637   -5.4820 O.co2     1 ACP         0.3195
      3 O2G        -1.2629   -0.8139   -7.4377 O.co2     1 ACP         0.3195
      4 O3G         0.9413    0.4144   -7.8950 O.3       1 ACP         0.0326
      5 PB          2.8931   -1.8182   -6.2129 P.3       1 ACP        -1.2804
      6 O1B         3.5735   -1.0368   -7.3125 O.co2     1 ACP         0.3195
      7 O2B         3.3217   -3.2181   -5.8373 O.co2     1 ACP         0.3195
      8 C3B         1.0913   -1.8853   -6.6168 C.3       1 ACP         0.8942
      9 PA          3.9534   -0.2075   -3.9573 P.3       1 ACP        -1.1062
     10 O1A         4.6225    0.8729   -4.7788 O.co2     1 ACP         0.3195
     11 O2A         4.7732   -1.3027   -3.3100 O.co2     1 ACP         0.3195
     12 O3A         2.7896   -0.9020   -4.8683 O.3       1 ACP         0.4672
     13 O5'         3.0198    0.5138   -2.8245 O.3       1 ACP         0.1618
     14 C5'         2.2816   -0.2918   -1.9206 C.3       1 ACP         0.1504
     15 C4'         2.7248    0.0226   -0.4980 C.3       1 ACP         0.1111
     16 O4'         2.4697    1.4219   -0.2462 O.3       1 ACP        -0.1436
     17 C3'         1.9404   -0.7419    0.5596 C.3       1 ACP         0.1111
     18 O3'         2.7418   -0.8086    1.7389 O.3       1 ACP        -0.2728
     19 C2'         0.7477    0.1630    0.7858 C.3       1 ACP         0.1111
     20 O2'         0.1373   -0.0577    2.0407 O.3       1 ACP        -0.2728
     21 C1'         1.3733    1.5427    0.6747 C.3       1 ACP         0.2693
     22 N9          0.4520    2.5240    0.1767 N.pl3     1 ACP        -0.3222
     23 C8         -0.7463    2.2774   -0.7501 C.ar      1 ACP         0.1640
     24 N7         -1.3714    3.4419   -0.9948 N.2       1 ACP        -0.1640
     25 C5         -0.6104    4.3223   -0.2723 C.ar      1 ACP         0.0820
     26 C6         -0.9062    5.7820   -0.2194 C.ar      1 ACP         0.1640
     27 N6         -1.9385    6.2713   -0.8881 N.pl3     1 ACP        -0.4916
     28 N1         -0.0613    6.4906    0.5336 N.pl3     1 ACP        -0.4390
     29 C2          1.0416    5.8662    1.2291 C.ar      1 ACP         0.5691
     30 N3          1.3146    4.5989    1.1954 N.ar      1 ACP        -0.4283
     31 C4          0.4541    3.8697    0.4273 C.ar      1 ACP         0.2226
     32 HOG3        0.6986    1.3374   -8.1218 H         1 ACP         0.2010
     33 H3B1        1.0048   -2.4311   -7.5629 H         1 ACP        -0.0393
     34 H3B2        0.6275   -2.5024   -5.8392 H         1 ACP        -0.0393
     35 H5'1        1.2153   -0.0781   -2.0454 H         1 ACP        -0.0393
     36 H5'2        2.4645   -1.3454   -2.1547 H         1 ACP        -0.0393
     37 H4'         3.8046   -0.1390   -0.4011 H         1 ACP        -0.0393
     38 H3'         1.6787   -1.7627    0.2719 H         1 ACP        -0.0393
     39 HO3'        2.2231   -1.2979    2.3952 H         1 ACP         0.2010
     40 H2'         0.0002   -0.0084   -0.0014 H         1 ACP        -0.0393
     41 HO2'       -0.1554   -0.9852    2.0577 H         1 ACP         0.2010
     42 H1'         1.7718    1.9211    1.6015 H         1 ACP        -0.0393
     43 H8         -1.1244    1.3534   -1.1987 H         1 ACP         0.0000
     44 HN61       -2.5259    5.6573   -1.4336 H         1 ACP         0.2048
     45 HN62       -2.1416    7.2600   -0.8539 H         1 ACP         0.2048
     46 H2          1.6509    6.5764    1.8088 H         1 ACP        -0.1292
     47 H47        -0.2190    7.4917    0.6033 H         1 ACP         0.2048
@<TRIPOS>BOND
     1    1    2 2
     2    1    3 1
     3    1    4 1
     4    1    8 1
     5    4   32 1
     6    5    6 2
     7    5    7 1
     8    5    8 1
     9    5   12 1
    10    8   33 1
    11    8   34 1
    12    9   10 2
    13    9   11 1
    14    9   12 1
    15    9   13 1
    16   13   14 1
    17   14   15 1
    18   14   35 1
    19   14   36 1
    20   15   16 1
    21   15   17 1
    22   15   37 1
    23   16   21 1
    24   17   18 1
    25   17   19 1
    26   17   38 1
    27   18   39 1
    28   19   20 1
    29   19   21 1
    30   19   40 1
    31   20   41 1
    32   21   22 1
    33   21   42 1
    34   22   23 ar
    35   22   31 ar
    36   23   24 ar
    37   23   43 1
    38   24   25 ar
    39   25   26 ar
    40   25   31 ar
    41   26   27 1
    42   26   28 ar
    43   27   44 1
    44   27   45 1
    45   28   29 ar
    46   28   47 1
    47   29   30 ar
    48   29   46 1
    49   30   31 ar
@<TRIPOS>SUBSTRUCTURE
     1 ACP         1 GROUP 0 A     ****
@<TRIPOS>MOLECULE
[[5-(6-amino-1,8-dihydropurine-6,8-diylium-7-id-9-yl)-3,4-dihydroxy-tetrahydrofuran-2-yl]methoxy-oxido-phosphoryl]oxy-[[hydroxy(oxido)phosphoryl]methyl]phosphinate
   47    49     1     0     0
SMALL
USER_CHARGES

@<TRIPOS>ATOM
      1 PG         -0.6161   -8.7006    4.6026 P.3       1 ACP        -1.2804
      2 O1G         0.0861   -7.8048    3.6091 O.co2     1 ACP         0.3195
      3 O2G        -0.9648  -10.1362    4.2837 O.co2     1 ACP         0.3195
      4 O3G         0.1644   -8.6396    6.0333 O.3       1 ACP         0.0326
      5 PB         -2.2119   -6.1970    5.9296 P.3       1 ACP        -1.2804
      6 O1B        -1.4335   -6.3128    7.2193 O.co2     1 ACP         0.3195
      7 O2B        -3.6419   -5.7091    5.8942 O.co2     1 ACP         0.3195
      8 C3B        -2.1767   -7.8540    5.1127 C.3       1 ACP         0.8942
      9 PA         -0.7235   -3.8665    4.8526 P.3       1 ACP        -1.1062
     10 O1A         0.3457   -3.7994    5.9213 O.co2     1 ACP         0.3195
     11 O2A        -1.8771   -2.8868    4.8538 O.co2     1 ACP         0.3195
     12 O3A        -1.3317   -5.3818    4.8256 O.3       1 ACP         0.4672
     13 O5'         0.0099   -3.8403    3.3910 O.3       1 ACP         0.1618
     14 C5'        -0.7840   -3.8935    2.2172 C.3       1 ACP         0.1504
     15 C4'        -0.0724   -3.1466    1.1027 C.3       1 ACP         0.1111
     16 O4'        -0.8674   -3.1929   -0.0945 O.3       1 ACP        -0.1436
     17 C3'         0.1338   -1.6715    1.4027 C.3       1 ACP         0.1111
     18 O3'         1.2893   -1.4445    2.1808 O.3       1 ACP        -0.2728
     19 C2'         0.2158   -1.0724    0.0128 C.3       1 ACP         0.1111
     20 O2'         1.5141   -1.2448   -0.5513 O.3       1 ACP        -0.2728
     21 C1'        -0.7897   -1.9176   -0.7583 C.3       1 ACP         0.2693
     22 N9         -2.1040   -1.3333   -0.7704 N.pl3     1 ACP        -0.3222
     23 C8         -3.2124   -1.5345    0.2719 C.ar      1 ACP         0.1640
     24 N7         -4.2964   -0.8234   -0.0828 N.2       1 ACP        -0.1640
     25 C5         -3.8754   -0.2386   -1.2478 C.ar      1 ACP         0.0820
     26 C6         -4.7432    0.6719   -2.0470 C.ar      1 ACP         0.1640
     27 N6         -5.9725    0.9415   -1.6366 N.pl3     1 ACP        -0.4916
     28 N1         -4.1703    1.1517   -3.1536 N.pl3     1 ACP        -0.4390
     29 C2         -2.8174    0.7994   -3.5215 C.ar      1 ACP         0.5691
     30 N3         -2.0475    0.0097   -2.8393 N.ar      1 ACP        -0.4283
     31 C4         -2.6278   -0.4836   -1.7071 C.ar      1 ACP         0.2226
     32 HOG3        1.1046   -8.9173    6.0655 H         1 ACP         0.2010
     33 H3B1       -2.6893   -8.5457    5.7904 H         1 ACP        -0.0393
     34 H3B2       -2.7924   -7.7624    4.2111 H         1 ACP        -0.0393
     35 H5'1       -0.9358   -4.9414    1.9395 H         1 ACP        -0.0393
     36 H5'2       -1.7558   -3.4349    2.4258 H         1 ACP        -0.0393
     37 H4'         0.8883   -3.6447    0.8783 H         1 ACP        -0.0393
     38 H3'        -0.7368   -1.2359    1.9871 H         1 ACP        -0.0393
     39 HO3'        1.3407   -0.4871    2.3218 H         1 ACP         0.2010
     40 H2'        -0.0343   -0.0280    0.0196 H         1 ACP        -0.0393
     41 HO2'        2.1443   -0.7955    0.0378 H         1 ACP         0.2010
     42 H1'        -0.5175   -2.1046   -1.7826 H         1 ACP        -0.0393
     43 H8         -3.2310   -2.1319    1.1889 H         1 ACP         0.0000
     44 HN61       -6.3230    0.5316   -0.7829 H         1 ACP         0.2048
     45 HN62       -6.5628    1.5584   -2.1760 H         1 ACP         0.2048
     46 H2         -2.4822    1.2710   -4.4579 H         1 ACP        -0.1292
     47 H47        -4.7200    1.7780   -3.7346 H         1 ACP         0.2048
@<TRIPOS>BOND
     1    1    2 2
     2    1    3 1
     3    1    4 1
     4    1    8 1
     5    4   32 1
     6    5    6 2
     7    5    7 1
     8    5    8 1
     9    5   12 1
    10    8   33 1
    11    8   34 1
    12    9   10 2
    13    9   11 1
    14    9   12 1
    15    9   13 1
    16   13   14 1
    17   14   15 1
    18   14   35 1
    19   14   36 1
    20   15   16 1
    21   15   17 1
    22   15   37 1
    23   16   21 1
    24   17   18 1
    25   17   19 1
    26   17   38 1
    27   18   39 1
    28   19   20 1
    29   19   21 1
    30   19   40 1
    31   20   41 1
    32   21   22 1
    33   21   42 1
    34   22   23 ar
    35   22   31 ar
    36   23   24 ar
    37   23   43 1
    38   24   25 ar
    39   25   26 ar
    40   25   31 ar
    41   26   27 1
    42   26   28 ar
    43   27   44 1
    44   27   45 1
    45   28   29 ar
    46   28   47 1
    47   29   30 ar
    48   29   46 1
    49   30   31 ar
@<TRIPOS>SUBSTRUCTURE
     1 ACP         1 GROUP 0 A     ****
@<TRIPOS>MOLECULE
[[5-(6-amino-1,8-dihydropurine-6,8-diylium-7-id-9-yl)-3,4-dihydroxy-tetrahydrofuran-2-yl]methoxy-oxido-phosphoryl]oxy-[[hydroxy(oxido)phosphoryl]methyl]phosphinate
   47    49     1     0     0
SMALL
USER_CHARGES

@<TRIPOS>ATOM
      1 PG          1.4076   -3.7216   -5.0483 P.3       1 ACP        -1.2804
      2 O1G         1.9435   -3.1986   -3.7361 O.co2     1 ACP         0.3195
      3 O2G         1.5501   -5.1705   -5.4542 O.co2     1 ACP         0.3195
      4 O3G        -0.1483   -3.2635   -5.2194 O.3       1 ACP         0.0326
      5 PB          1.8928   -0.8693   -6.5330 P.3       1 ACP        -1.2804
      6 O1B         0.4081   -0.6220   -6.6641 O.co2     1 ACP         0.3195
      7 O2B         2.8867   -0.3554   -7.5491 O.co2     1 ACP         0.3195
      8 C3B         2.1388   -2.6957   -6.3993 C.3       1 ACP         0.8942
      9 PA          2.3321    0.9617   -4.2393 P.3       1 ACP        -1.1062
     10 O1A         0.8820    1.3039   -3.9746 O.co2     1 ACP         0.3195
     11 O2A         3.2385    1.9433   -4.9501 O.co2     1 ACP         0.3195
     12 O3A         2.3890   -0.4639   -5.0338 O.3       1 ACP         0.4672
     13 O5'         3.0198    0.5138   -2.8245 O.3       1 ACP         0.1618
     14 C5'         2.2816   -0.2918   -1.9206 C.3       1 ACP         0.1504
     15 C4'         2.7248    0.0226   -0.4980 C.3       1 ACP         0.1111
     16 O4'         2.4697    1.4219   -0.2462 O.3       1 ACP        -0.1436
     17 C3'         1.9404   -0.7419    0.5596 C.3       1 ACP         0.1111
     18 O3'         2.7418   -0.8086    1.7389 O.3       1 ACP        -0.2728
     19 C2'         0.7477    0.1630    0.7858 C.3       1 ACP         0.1111
     20 O2'         0.1373   -0.0577    2.0407 O.3       1 ACP        -0.2728
     21 C1'         1.3733    1.5427    0.6747 C.3       1 ACP         0.2693
     22 N9          0.4520    2.5240    0.1767 N.pl3     1 ACP        -0.3222
     23 C8         -1.0660    2.5608    0.3999 C.ar      1 ACP         0.1640
     24 N7         -1.5852    3.6333   -0.2221 N.2       1 ACP        -0.1640
     25 C5         -0.4682    4.1996   -0.7771 C.ar      1 ACP         0.0820
     26 C6         -0.5216    5.4476   -1.5899 C.ar      1 ACP         0.1640
     27 N6         -1.6813    6.0510   -1.7982 N.pl3     1 ACP        -0.4916
     28 N1          0.6621    5.8575   -2.0523 N.pl3     1 ACP        -0.4390
     29 C2          1.8795    5.1301   -1.7717 C.ar      1 ACP         0.5691
     30 N3          1.9458    4.0434   -1.0670 N.ar      1 ACP        -0.4283
     31 C4          0.7388    3.6199   -0.5917 C.ar      1 ACP         0.2226
     32 HOG3       -0.7992   -3.5577   -4.5471 H         1 ACP         0.2010
     33 H3B1        1.7759   -3.1279   -7.3385 H         1 ACP        -0.0393
     34 H3B2        3.2221   -2.8554   -6.3624 H         1 ACP        -0.0393
     35 H5'1        1.2153   -0.0781   -2.0454 H         1 ACP        -0.0393
     36 H5'2        2.4645   -1.3454   -2.1547 H         1 ACP        -0.0393
     37 H4'         3.8046   -0.1390   -0.4011 H         1 ACP        -0.0393
     38 H3'         1.6787   -1.7627    0.2719 H         1 ACP        -0.0393
     39 HO3'        2.2231   -1.2979    2.3952 H         1 ACP         0.2010
     40 H2'         0.0002   -0.0084   -0.0014 H         1 ACP        -0.0393
     41 HO2'       -0.1554   -0.9852    2.0577 H         1 ACP         0.2010
     42 H1'         1.7718    1.9211    1.6015 H         1 ACP        -0.0393
     43 H8         -1.7235    1.8833    0.9537 H         1 ACP         0.0000
     44 HN61       -2.5296    5.6672   -1.4072 H         1 ACP         0.2048
     45 HN62       -1.7205    6.8969   -2.3483 H         1 ACP         0.2048
     46 H2          2.7750    5.5878   -2.2190 H         1 ACP        -0.1292
     47 H47         0.6808    6.7046   -2.6128 H         1 ACP         0.2048
@<TRIPOS>BOND
     1    1    2 2
     2    1    3 1
     3    1    4 1
     4    1    8 1
     5    4   32 1
     6    5    6 2
     7    5    7 1
     8    5    8 1
     9    5   12 1
    10    8   33 1
    11    8   34 1
    12    9   10 2
    13    9   11 1
    14    9   12 1
    15    9   13 1
    16   13   14 1
    17   14   15 1
    18   14   35 1
    19   14   36 1
    20   15   16 1
    21   15   17 1
    22   15   37 1
    23   16   21 1
    24   17   18 1
    25   17   19 1
    26   17   38 1
    27   18   39 1
    28   19   20 1
    29   19   21 1
    30   19   40 1
    31   20   41 1
    32   21   22 1
    33   21   42 1
    34   22   23 ar
    35   22   31 ar
    36   23   24 ar
    37   23   43 1
    38   24   25 ar
    39   25   26 ar
    40   25   31 ar
    41   26   27 1
    42   26   28 ar
    43   27   44 1
    44   27   45 1
    45   28   29 ar
    46   28   47 1
    47   29   30 ar
    48   29   46 1
    49   30   31 ar
@<TRIPOS>SUBSTRUCTURE
     1 ACP         1 GROUP 0 A     ****
@<TRIPOS>MOLECULE
[[5-(6-amino-1,8-dihydropurine-6,8-diylium-7-id-9-yl)-3,4-dihydroxy-tetrahydrofuran-2-yl]methoxy-oxido-phosphoryl]oxy-[[hydroxy(oxido)phosphoryl]methyl]phosphinate
   47    49     1     0     0
SMALL
USER_CHARGES

@<TRIPOS>ATOM
      1 PG          0.8746   -3.7439    6.6372 P.3       1 ACP        -1.2804
      2 O1G        -0.4065   -3.3628    7.3419 O.co2     1 ACP         0.3195
      3 O2G         1.1810   -3.2931    5.2276 O.co2     1 ACP         0.3195
      4 O3G         2.1452   -3.4036    7.6013 O.3       1 ACP         0.0326
      5 PB         -0.2565   -6.7031    5.9031 P.3       1 ACP        -1.2804
      6 O1B        -1.5770   -6.4280    6.5838 O.co2     1 ACP         0.3195
      7 O2B         0.3465   -8.0879    5.8474 O.co2     1 ACP         0.3195
      8 C3B         1.0019   -5.5865    6.6671 C.3       1 ACP         0.8942
      9 PA         -1.2314   -6.3276    3.1254 P.3       1 ACP        -1.1062
     10 O1A        -2.6228   -5.8393    3.4649 O.co2     1 ACP         0.3195
     11 O2A        -1.0069   -7.7472    2.6513 O.co2     1 ACP         0.3195
     12 O3A        -0.2601   -6.0511    4.4088 O.3       1 ACP         0.4672
     13 O5'        -0.5697   -5.2855    2.0524 O.3       1 ACP         0.1618
     14 C5'        -0.7840   -3.8935    2.2172 C.3       1 ACP         0.1504
     15 C4'        -0.0724   -3.1466    1.1027 C.3       1 ACP         0.1111
     16 O4'        -0.8674   -3.1929   -0.0945 O.3       1 ACP        -0.1436
     17 C3'         0.1338   -1.6715    1.4027 C.3       1 ACP         0.1111
     18 O3'         1.2893   -1.4445    2.1808 O.3       1 ACP        -0.2728
     19 C2'         0.2158   -1.0724    0.0128 C.3       1 ACP         0.1111
     20 O2'         1.5141   -1.2448   -0.5513 O.3       1 ACP        -0.2728
     21 C1'        -0.7897   -1.9176   -0.7583 C.3       1 ACP         0.2693
     22 N9         -2.1040   -1.3333   -0.7704 N.pl3     1 ACP        -0.3222
     23 C8         -3.2124   -1.5345    0.2719 C.ar      1 ACP         0.1640
     24 N7         -4.2964   -0.8234   -0.0828 N.2       1 ACP        -0.1640
     25 C5         -3.8754   -0.2386   -1.2478 C.ar      1 ACP         0.0820
     26 C6         -4.7432    0.6719   -2.0470 C.ar      1 ACP         0.1640
     27 N6         -5.9725    0.9415   -1.6366 N.pl3     1 ACP        -0.4916
     28 N1         -4.1703    1.1517   -3.1536 N.pl3     1 ACP        -0.4390
     29 C2         -2.8174    0.7994   -3.5215 C.ar      1 ACP         0.5691
     30 N3         -2.0475    0.0097   -2.8393 N.ar      1 ACP        -0.4283
     31 C4         -2.6278   -0.4836   -1.7071 C.ar      1 ACP         0.2226
     32 HOG3        2.2814   -2.4746    7.8851 H         1 ACP         0.2010
     33 H3B1        1.0674   -5.8688    7.7237 H         1 ACP        -0.0393
     34 H3B2        1.9595   -5.8419    6.1999 H         1 ACP        -0.0393
     35 H5'1       -1.8599   -3.6946    2.1849 H         1 ACP        -0.0393
     36 H5'2       -0.3934   -3.5881    3.1930 H         1 ACP        -0.0393
     37 H4'         0.8883   -3.6447    0.8783 H         1 ACP        -0.0393
     38 H3'        -0.7368   -1.2359    1.9871 H         1 ACP        -0.0393
     39 HO3'        1.3407   -0.4871    2.3218 H         1 ACP         0.2010
     40 H2'        -0.0343   -0.0280    0.0196 H         1 ACP        -0.0393
     41 HO2'        1.4978   -0.8409   -1.4361 H         1 ACP         0.2010
     42 H1'        -0.5175   -2.1046   -1.7826 H         1 ACP        -0.0393
     43 H8         -3.2310   -2.1319    1.1889 H         1 ACP         0.0000
     44 HN61       -6.3230    0.5316   -0.7829 H         1 ACP         0.2048
     45 HN62       -6.5628    1.5584   -2.1760 H         1 ACP         0.2048
     46 H2         -2.4822    1.2710   -4.4579 H         1 ACP        -0.1292
     47 H47        -4.7200    1.7780   -3.7346 H         1 ACP         0.2048
@<TRIPOS>BOND
     1    1    2 2
     2    1    3 1
     3    1    4 1
     4    1    8 1
     5    4   32 1
     6    5    6 2
     7    5    7 1
     8    5    8 1
     9    5   12 1
    10    8   33 1
    11    8   34 1
    12    9   10 2
    13    9   11 1
    14    9   12 1
    15    9   13 1
    16   13   14 1
    17   14   15 1
    18   14   35 1
    19   14   36 1
    20   15   16 1
    21   15   17 1
    22   15   37 1
    23   16   21 1
    24   17   18 1
    25   17   19 1
    26   17   38 1
    27   18   39 1
    28   19   20 1
    29   19   21 1
    30   19   40 1
    31   20   41 1
    32   21   22 1
    33   21   42 1
    34   22   23 ar
    35   22   31 ar
    36   23   24 ar
    37   23   43 1
    38   24   25 ar
    39   25   26 ar
    40   25   31 ar
    41   26   27 1
    42   26   28 ar
    43   27   44 1
    44   27   45 1
    45   28   29 ar
    46   28   47 1
    47   29   30 ar
    48   29   46 1
    49   30   31 ar
@<TRIPOS>SUBSTRUCTURE
     1 ACP         1 GROUP 0 A     ****
@<TRIPOS>MOLECULE
[[5-(6-amino-1,8-dihydropurine-6,8-diylium-7-id-9-yl)-3,4-dihydroxy-tetrahydrofuran-2-yl]methoxy-oxido-phosphoryl]oxy-[[hydroxy(oxido)phosphoryl]methyl]phosphinate
   47    49     1     0     0
SMALL
USER_CHARGES

@<TRIPOS>ATOM
      1 PG          7.5093   -1.1511   -2.7925 P.3       1 ACP        -1.2804
      2 O1G         6.4336   -1.1394   -1.7316 O.co2     1 ACP         0.3195
      3 O2G         8.8220   -0.4237   -2.6138 O.co2     1 ACP         0.3195
      4 O3G         7.8020   -2.6888   -3.2504 O.3       1 ACP         0.0326
      5 PB          5.3244   -1.3769   -5.1905 P.3       1 ACP        -1.2804
      6 O1B         5.7568   -2.7849   -5.5268 O.co2     1 ACP         0.3195
      7 O2B         4.7951   -0.4259   -6.2392 O.co2     1 ACP         0.3195
      8 C3B         6.7513   -0.5436   -4.3636 C.3       1 ACP         0.8942
      9 PA          2.8591   -2.1299   -3.7201 P.3       1 ACP        -1.1062
     10 O1A         3.0727   -3.6280   -3.7234 O.co2     1 ACP         0.3195
     11 O2A         1.8686   -1.4903   -4.6689 O.co2     1 ACP         0.3195
     12 O3A         4.3077   -1.4018   -3.9162 O.3       1 ACP         0.4672
     13 O5'         2.5237   -1.6631   -2.1889 O.3       1 ACP         0.1618
     14 C5'         2.2816   -0.2918   -1.9206 C.3       1 ACP         0.1504
     15 C4'         2.7248    0.0226   -0.4980 C.3       1 ACP         0.1111
     16 O4'         2.4697    1.4219   -0.2462 O.3       1 ACP        -0.1436
     17 C3'         1.9404   -0.7419    0.5596 C.3       1 ACP         0.1111
     18 O3'         2.7418   -0.8086    1.7389 O.3       1 ACP        -0.2728
     19 C2'         0.7477    0.1630    0.7858 C.3       1 ACP         0.1111
     20 O2'         0.1373   -0.0577    2.0407 O.3       1 ACP        -0.2728
     21 C1'         1.3733    1.5427    0.6747 C.3       1 ACP         0.2693
     22 N9          0.4520    2.5240    0.1767 N.pl3     1 ACP        -0.3222
     23 C8         -1.0247    2.3053   -0.1800 C.ar      1 ACP         0.1640
     24 N7         -1.5580    3.4612   -0.6116 N.2       1 ACP        -0.1640
     25 C5         -0.4873    4.3110   -0.5222 C.ar      1 ACP         0.0820
     26 C6         -0.5728    5.7505   -0.8981 C.ar      1 ACP         0.1640
     27 N6         -1.7163    6.2514   -1.3385 N.pl3     1 ACP        -0.4916
     28 N1          0.5667    6.4301   -0.7475 N.pl3     1 ACP        -0.4390
     29 C2          1.7697    5.7952   -0.2579 C.ar      1 ACP         0.5691
     30 N3          1.8633    4.5450    0.0742 N.ar      1 ACP        -0.4283
     31 C4          0.7014    3.8457   -0.0776 C.ar      1 ACP         0.2226
     32 HOG3        8.1101   -3.3280   -2.5731 H         1 ACP         0.2010
     33 H3B1        7.5625   -0.5129   -5.0996 H         1 ACP        -0.0393
     34 H3B2        6.4363    0.4896   -4.1803 H         1 ACP        -0.0393
     35 H5'1        2.8429    0.3140   -2.6391 H         1 ACP        -0.0393
     36 H5'2        1.2125   -0.0906   -2.0420 H         1 ACP        -0.0393
     37 H4'         3.8046   -0.1390   -0.4011 H         1 ACP        -0.0393
     38 H3'         1.6787   -1.7627    0.2719 H         1 ACP        -0.0393
     39 HO3'        2.2231   -1.2979    2.3952 H         1 ACP         0.2010
     40 H2'         0.0002   -0.0084   -0.0014 H         1 ACP        -0.0393
     41 HO2'       -0.1554   -0.9852    2.0577 H         1 ACP         0.2010
     42 H1'         1.7718    1.9211    1.6015 H         1 ACP        -0.0393
     43 H8         -1.6458    1.4054   -0.1318 H         1 ACP         0.0000
     44 HN61       -2.5307    5.6598   -1.4199 H         1 ACP         0.2048
     45 HN62       -1.7773    7.2266   -1.5938 H         1 ACP         0.2048
     46 H2          2.6279    6.4808   -0.1872 H         1 ACP        -0.1292
     47 H47         0.5621    7.4166   -0.9900 H         1 ACP         0.2048
@<TRIPOS>BOND
     1    1    2 2
     2    1    3 1
     3    1    4 1
     4    1    8 1
     5    4   32 1
     6    5    6 2
     7    5    7 1
     8    5    8 1
     9    5   12 1
    10    8   33 1
    11    8   34 1
    12    9   10 2
    13    9   11 1
    14    9   12 1
    15    9   13 1
    16   13   14 1
    17   14   15 1
    18   14   35 1
    19   14   36 1
    20   15   16 1
    21   15   17 1
    22   15   37 1
    23   16   21 1
    24   17   18 1
    25   17   19 1
    26   17   38 1
    27   18   39 1
    28   19   20 1
    29   19   21 1
    30   19   40 1
    31   20   41 1
    32   21   22 1
    33   21   42 1
    34   22   23 ar
    35   22   31 ar
    36   23   24 ar
    37   23   43 1
    38   24   25 ar
    39   25   26 ar
    40   25   31 ar
    41   26   27 1
    42   26   28 ar
    43   27   44 1
    44   27   45 1
    45   28   29 ar
    46   28   47 1
    47   29   30 ar
    48   29   46 1
    49   30   31 ar
@<TRIPOS>SUBSTRUCTURE
     1 ACP         1 GROUP 0 A     ****
@<TRIPOS>MOLECULE
[[5-(6-amino-1,8-dihydropurine-6,8-diylium-7-id-9-yl)-3,4-dihydroxy-tetrahydrofuran-2-yl]methoxy-oxido-phosphoryl]oxy-[[hydroxy(oxido)phosphoryl]methyl]phosphinate
   47    49     1     0     0
SMALL
USER_CHARGES

@<TRIPOS>ATOM
      1 PG         -2.3103   -0.4650   -3.0136 P.3       1 ACP        -1.2804
      2 O1G        -2.2859    0.4467   -4.2182 O.co2     1 ACP         0.3195
      3 O2G        -1.3625   -0.2848   -1.8502 O.co2     1 ACP         0.3195
      4 O3G        -3.8373   -0.5815   -2.4530 O.3       1 ACP         0.0326
      5 PB         -0.6408   -2.7814   -4.5701 P.3       1 ACP        -1.2804
      6 O1B        -0.5592   -1.9529   -5.8309 O.co2     1 ACP         0.3195
      7 O2B        -0.6954   -4.2915   -4.6021 O.co2     1 ACP         0.3195
      8 C3B        -2.1151   -2.1986   -3.6208 C.3       1 ACP         0.8942
      9 PA          2.1362   -2.2698   -3.6575 P.3       1 ACP        -1.1062
     10 O1A         2.5073   -1.2450   -4.7072 O.co2     1 ACP         0.3195
     11 O2A         2.6360   -3.6946   -3.7605 O.co2     1 ACP         0.3195
     12 O3A         0.5093   -2.3009   -3.5192 O.3       1 ACP         0.4672
     13 O5'         2.5237   -1.6631   -2.1889 O.3       1 ACP         0.1618
     14 C5'         2.2816   -0.2918   -1.9206 C.3       1 ACP         0.1504
     15 C4'         2.7248    0.0226   -0.4980 C.3       1 ACP         0.1111
     16 O4'         2.4697    1.4219   -0.2462 O.3       1 ACP        -0.1436
     17 C3'         1.9404   -0.7419    0.5596 C.3       1 ACP         0.1111
     18 O3'         2.7418   -0.8086    1.7389 O.3       1 ACP        -0.2728
     19 C2'         0.7477    0.1630    0.7858 C.3       1 ACP         0.1111
     20 O2'         0.1373   -0.0577    2.0407 O.3       1 ACP        -0.2728
     21 C1'         1.3733    1.5427    0.6747 C.3       1 ACP         0.2693
     22 N9          0.4520    2.5240    0.1767 N.pl3     1 ACP        -0.3222
     23 C8         -0.4598    3.4379    1.0068 C.ar      1 ACP         0.1640
     24 N7         -1.1770    4.2228    0.1845 N.2       1 ACP        -0.1640
     25 C5         -0.7330    3.8149   -1.0455 C.ar      1 ACP         0.0820
     26 C6         -1.2413    4.4029   -2.3169 C.ar      1 ACP         0.1640
     27 N6         -2.1578    5.3575   -2.2831 N.pl3     1 ACP        -0.4916
     28 N1         -0.6977    3.8860   -3.4216 N.pl3     1 ACP        -0.4390
     29 C2          0.3002    2.8419   -3.3591 C.ar      1 ACP         0.5691
     30 N3          0.7548    2.3183   -2.2631 N.ar      1 ACP        -0.4283
     31 C4          0.2027    2.8430   -1.1309 C.ar      1 ACP         0.2226
     32 HOG3       -4.2910    0.2366   -2.1580 H         1 ACP         0.2010
     33 H3B1       -2.9893   -2.3998   -4.2498 H         1 ACP        -0.0393
     34 H3B2       -2.1877   -2.8484   -2.7417 H         1 ACP        -0.0393
     35 H5'1        2.8429    0.3140   -2.6391 H         1 ACP        -0.0393
     36 H5'2        1.2125   -0.0906   -2.0420 H         1 ACP        -0.0393
     37 H4'         3.8046   -0.1390   -0.4011 H         1 ACP        -0.0393
     38 H3'         1.6787   -1.7627    0.2719 H         1 ACP        -0.0393
     39 HO3'        2.2231   -1.2979    2.3952 H         1 ACP         0.2010
     40 H2'         0.0002   -0.0084   -0.0014 H         1 ACP        -0.0393
     41 HO2'       -0.6132    0.5577    2.1063 H         1 ACP         0.2010
     42 H1'         1.7718    1.9211    1.6015 H         1 ACP        -0.0393
     43 H8         -0.5892    3.5248    2.0902 H         1 ACP         0.0000
     44 HN61       -2.5128    5.6880   -1.3974 H         1 ACP         0.2048
     45 HN62       -2.5040    5.7581   -3.1431 H         1 ACP         0.2048
     46 H2          0.6550    2.5166   -4.3490 H         1 ACP        -0.1292
     47 H47        -1.0101    4.2527   -4.3160 H         1 ACP         0.2048
@<TRIPOS>BOND
     1    1    2 2
     2    1    3 1
     3    1    4 1
     4    1    8 1
     5    4   32 1
     6    5    6 2
     7    5    7 1
     8    5    8 1
     9    5   12 1
    10    8   33 1
    11    8   34 1
    12    9   10 2
    13    9   11 1
    14    9   12 1
    15    9   13 1
    16   13   14 1
    17   14   15 1
    18   14   35 1
    19   14   36 1
    20   15   16 1
    21   15   17 1
    22   15   37 1
    23   16   21 1
    24   17   18 1
    25   17   19 1
    26   17   38 1
    27   18   39 1
    28   19   20 1
    29   19   21 1
    30   19   40 1
    31   20   41 1
    32   21   22 1
    33   21   42 1
    34   22   23 ar
    35   22   31 ar
    36   23   24 ar
    37   23   43 1
    38   24   25 ar
    39   25   26 ar
    40   25   31 ar
    41   26   27 1
    42   26   28 ar
    43   27   44 1
    44   27   45 1
    45   28   29 ar
    46   28   47 1
    47   29   30 ar
    48   29   46 1
    49   30   31 ar
@<TRIPOS>SUBSTRUCTURE
     1 ACP         1 GROUP 0 A     ****
@<TRIPOS>MOLECULE
[[5-(6-amino-1,8-dihydropurine-6,8-diylium-7-id-9-yl)-3,4-dihydroxy-tetrahydrofuran-2-yl]methoxy-oxido-phosphoryl]oxy-[[hydroxy(oxido)phosphoryl]methyl]phosphinate
   47    49     1     0     0
SMALL
USER_CHARGES

@<TRIPOS>ATOM
      1 PG         -0.1528    0.8076   -5.6809 P.3       1 ACP        -1.2804
      2 O1G        -0.8941    0.4859   -4.4042 O.co2     1 ACP         0.3195
      3 O2G        -0.8141    1.5253   -6.8349 O.co2     1 ACP         0.3195
      4 O3G         1.2539    1.5491   -5.3186 O.3       1 ACP         0.0326
      5 PB          1.7357   -1.8251   -5.4014 P.3       1 ACP        -1.2804
      6 O1B         2.9625   -0.9848   -5.1341 O.co2     1 ACP         0.3195
      7 O2B         1.8124   -3.1581   -6.1094 O.co2     1 ACP         0.3195
      8 C3B         0.5397   -0.7736   -6.3385 C.3       1 ACP         0.8942
      9 PA          1.2676   -2.6330   -2.5845 P.3       1 ACP        -1.1062
     10 O1A         1.8014   -4.0298   -2.8163 O.co2     1 ACP         0.3195
     11 O2A         0.1253   -2.3943   -1.6209 O.co2     1 ACP         0.3195
     12 O3A         0.8686   -1.9867   -4.0302 O.3       1 ACP         0.4672
     13 O5'         2.5237   -1.6631   -2.1889 O.3       1 ACP         0.1618
     14 C5'         2.2816   -0.2918   -1.9206 C.3       1 ACP         0.1504
     15 C4'         2.7248    0.0226   -0.4980 C.3       1 ACP         0.1111
     16 O4'         2.4697    1.4219   -0.2462 O.3       1 ACP        -0.1436
     17 C3'         1.9404   -0.7419    0.5596 C.3       1 ACP         0.1111
     18 O3'         2.7418   -0.8086    1.7389 O.3       1 ACP        -0.2728
     19 C2'         0.7477    0.1630    0.7858 C.3       1 ACP         0.1111
     20 O2'         0.1373   -0.0577    2.0407 O.3       1 ACP        -0.2728
     21 C1'         1.3733    1.5427    0.6747 C.3       1 ACP         0.2693
     22 N9          0.4520    2.5240    0.1767 N.pl3     1 ACP        -0.3222
     23 C8         -1.0660    2.5608    0.3999 C.ar      1 ACP         0.1640
     24 N7         -1.5852    3.6333   -0.2221 N.2       1 ACP        -0.1640
     25 C5         -0.4682    4.1996   -0.7771 C.ar      1 ACP         0.0820
     26 C6         -0.5216    5.4476   -1.5899 C.ar      1 ACP         0.1640
     27 N6         -1.6813    6.0510   -1.7982 N.pl3     1 ACP        -0.4916
     28 N1          0.6621    5.8575   -2.0523 N.pl3     1 ACP        -0.4390
     29 C2          1.8795    5.1301   -1.7717 C.ar      1 ACP         0.5691
     30 N3          1.9458    4.0434   -1.0670 N.ar      1 ACP        -0.4283
     31 C4          0.7388    3.6199   -0.5917 C.ar      1 ACP         0.2226
     32 HOG3        1.2225    2.3967   -4.8259 H         1 ACP         0.2010
     33 H3B1        1.0254   -0.5205   -7.2874 H         1 ACP        -0.0393
     34 H3B2       -0.3158   -1.4178   -6.5702 H         1 ACP        -0.0393
     35 H5'1        2.8429    0.3140   -2.6391 H         1 ACP        -0.0393
     36 H5'2        1.2125   -0.0906   -2.0420 H         1 ACP        -0.0393
     37 H4'         3.8046   -0.1390   -0.4011 H         1 ACP        -0.0393
     38 H3'         1.6787   -1.7627    0.2719 H         1 ACP        -0.0393
     39 HO3'        2.2231   -1.2979    2.3952 H         1 ACP         0.2010
     40 H2'         0.0002   -0.0084   -0.0014 H         1 ACP        -0.0393
     41 HO2'       -0.1554   -0.9852    2.0577 H         1 ACP         0.2010
     42 H1'         1.7718    1.9211    1.6015 H         1 ACP        -0.0393
     43 H8         -1.7235    1.8833    0.9537 H         1 ACP         0.0000
     44 HN61       -2.5296    5.6672   -1.4072 H         1 ACP         0.2048
     45 HN62       -1.7205    6.8969   -2.3483 H         1 ACP         0.2048
     46 H2          2.7750    5.5878   -2.2190 H         1 ACP        -0.1292
     47 H47         0.6808    6.7046   -2.6128 H         1 ACP         0.2048
@<TRIPOS>BOND
     1    1    2 2
     2    1    3 1
     3    1    4 1
     4    1    8 1
     5    4   32 1
     6    5    6 2
     7    5    7 1
     8    5    8 1
     9    5   12 1
    10    8   33 1
    11    8   34 1
    12    9   10 2
    13    9   11 1
    14    9   12 1
    15    9   13 1
    16   13   14 1
    17   14   15 1
    18   14   35 1
    19   14   36 1
    20   15   16 1
    21   15   17 1
    22   15   37 1
    23   16   21 1
    24   17   18 1
    25   17   19 1
    26   17   38 1
    27   18   39 1
    28   19   20 1
    29   19   21 1
    30   19   40 1
    31   20   41 1
    32   21   22 1
    33   21   42 1
    34   22   23 ar
    35   22   31 ar
    36   23   24 ar
    37   23   43 1
    38   24   25 ar
    39   25   26 ar
    40   25   31 ar
    41   26   27 1
    42   26   28 ar
    43   27   44 1
    44   27   45 1
    45   28   29 ar
    46   28   47 1
    47   29   30 ar
    48   29   46 1
    49   30   31 ar
@<TRIPOS>SUBSTRUCTURE
     1 ACP         1 GROUP 0 A     ****
@<TRIPOS>MOLECULE
[[5-(6-amino-1,8-dihydropurine-6,8-diylium-7-id-9-yl)-3,4-dihydroxy-tetrahydrofuran-2-yl]methoxy-oxido-phosphoryl]oxy-[[hydroxy(oxido)phosphoryl]methyl]phosphinate
   47    49     1     0     0
SMALL
USER_CHARGES

@<TRIPOS>ATOM
      1 PG         -4.5647   -4.0061    4.8569 P.3       1 ACP        -1.2804
      2 O1G        -4.7049   -3.1160    3.6441 O.co2     1 ACP         0.3195
      3 O2G        -3.3835   -3.9066    5.7944 O.co2     1 ACP         0.3195
      4 O3G        -5.9463   -3.9638    5.7225 O.3       1 ACP         0.0326
      5 PB         -3.4810   -6.4952    3.0666 P.3       1 ACP        -1.2804
      6 O1B        -3.5849   -5.6942    1.7898 O.co2     1 ACP         0.3195
      7 O2B        -3.6834   -7.9927    3.0955 O.co2     1 ACP         0.3195
      8 C3B        -4.6644   -5.7577    4.2790 C.3       1 ACP         0.8942
      9 PA         -0.5394   -6.2504    3.3727 P.3       1 ACP        -1.1062
     10 O1A        -0.2967   -7.6723    2.9158 O.co2     1 ACP         0.3195
     11 O2A         0.3368   -5.6217    4.4346 O.co2     1 ACP         0.3195
     12 O3A        -2.0977   -6.1184    3.8429 O.3       1 ACP         0.4672
     13 O5'        -0.5697   -5.2855    2.0524 O.3       1 ACP         0.1618
     14 C5'        -0.7840   -3.8935    2.2172 C.3       1 ACP         0.1504
     15 C4'        -0.0724   -3.1466    1.1027 C.3       1 ACP         0.1111
     16 O4'        -0.8674   -3.1929   -0.0945 O.3       1 ACP        -0.1436
     17 C3'         0.1338   -1.6715    1.4027 C.3       1 ACP         0.1111
     18 O3'         1.2893   -1.4445    2.1808 O.3       1 ACP        -0.2728
     19 C2'         0.2158   -1.0724    0.0128 C.3       1 ACP         0.1111
     20 O2'         1.5141   -1.2448   -0.5513 O.3       1 ACP        -0.2728
     21 C1'        -0.7897   -1.9176   -0.7583 C.3       1 ACP         0.2693
     22 N9         -2.1040   -1.3333   -0.7704 N.pl3     1 ACP        -0.3222
     23 C8         -3.2124   -1.5345    0.2719 C.ar      1 ACP         0.1640
     24 N7         -4.2964   -0.8234   -0.0828 N.2       1 ACP        -0.1640
     25 C5         -3.8754   -0.2386   -1.2478 C.ar      1 ACP         0.0820
     26 C6         -4.7432    0.6719   -2.0470 C.ar      1 ACP         0.1640
     27 N6         -5.9725    0.9415   -1.6366 N.pl3     1 ACP        -0.4916
     28 N1         -4.1703    1.1517   -3.1536 N.pl3     1 ACP        -0.4390
     29 C2         -2.8174    0.7994   -3.5215 C.ar      1 ACP         0.5691
     30 N3         -2.0475    0.0097   -2.8393 N.ar      1 ACP        -0.4283
     31 C4         -2.6278   -0.4836   -1.7071 C.ar      1 ACP         0.2226
     32 HOG3       -6.2496   -3.1012    6.0777 H         1 ACP         0.2010
     33 H3B1       -5.6652   -5.8789    3.8497 H         1 ACP        -0.0393
     34 H3B2       -4.6141   -6.3864    5.1749 H         1 ACP        -0.0393
     35 H5'1       -1.8599   -3.6946    2.1849 H         1 ACP        -0.0393
     36 H5'2       -0.3934   -3.5881    3.1930 H         1 ACP        -0.0393
     37 H4'         0.8883   -3.6447    0.8783 H         1 ACP        -0.0393
     38 H3'        -0.7368   -1.2359    1.9871 H         1 ACP        -0.0393
     39 HO3'        2.0373   -1.7816    1.6651 H         1 ACP         0.2010
     40 H2'        -0.0343   -0.0280    0.0196 H         1 ACP        -0.0393
     41 HO2'        1.4978   -0.8409   -1.4361 H         1 ACP         0.2010
     42 H1'        -0.5175   -2.1046   -1.7826 H         1 ACP        -0.0393
     43 H8         -3.2310   -2.1319    1.1889 H         1 ACP         0.0000
     44 HN61       -6.3230    0.5316   -0.7829 H         1 ACP         0.2048
     45 HN62       -6.5628    1.5584   -2.1760 H         1 ACP         0.2048
     46 H2         -2.4822    1.2710   -4.4579 H         1 ACP        -0.1292
     47 H47        -4.7200    1.7780   -3.7346 H         1 ACP         0.2048
@<TRIPOS>BOND
     1    1    2 2
     2    1    3 1
     3    1    4 1
     4    1    8 1
     5    4   32 1
     6    5    6 2
     7    5    7 1
     8    5    8 1
     9    5   12 1
    10    8   33 1
    11    8   34 1
    12    9   10 2
    13    9   11 1
    14    9   12 1
    15    9   13 1
    16   13   14 1
    17   14   15 1
    18   14   35 1
    19   14   36 1
    20   15   16 1
    21   15   17 1
    22   15   37 1
    23   16   21 1
    24   17   18 1
    25   17   19 1
    26   17   38 1
    27   18   39 1
    28   19   20 1
    29   19   21 1
    30   19   40 1
    31   20   41 1
    32   21   22 1
    33   21   42 1
    34   22   23 ar
    35   22   31 ar
    36   23   24 ar
    37   23   43 1
    38   24   25 ar
    39   25   26 ar
    40   25   31 ar
    41   26   27 1
    42   26   28 ar
    43   27   44 1
    44   27   45 1
    45   28   29 ar
    46   28   47 1
    47   29   30 ar
    48   29   46 1
    49   30   31 ar
@<TRIPOS>SUBSTRUCTURE
     1 ACP         1 GROUP 0 A     ****
@<TRIPOS>MOLECULE
[[5-(6-amino-1,8-dihydropurine-6,8-diylium-7-id-9-yl)-3,4-dihydroxy-tetrahydrofuran-2-yl]methoxy-oxido-phosphoryl]oxy-[[hydroxy(oxido)phosphoryl]methyl]phosphinate
   47    49     1     0     0
SMALL
USER_CHARGES

@<TRIPOS>ATOM
      1 PG          1.4787   -3.7857   -5.8477 P.3       1 ACP        -1.2804
      2 O1G         0.9618   -4.6015   -7.0097 O.co2     1 ACP         0.3195
      3 O2G         0.5568   -2.9973   -4.9463 O.co2     1 ACP         0.3195
      4 O3G         2.4672   -4.7080   -4.9355 O.3       1 ACP         0.0326
      5 PB          3.6554   -1.4027   -5.4495 P.3       1 ACP        -1.2804
      6 O1B         4.5905   -0.6300   -6.3502 O.co2     1 ACP         0.3195
      7 O2B         4.1474   -2.1531   -4.2333 O.co2     1 ACP         0.3195
      8 C3B         2.7423   -2.6111   -6.5079 C.3       1 ACP         0.8942
      9 PA          2.3321    0.9617   -4.2393 P.3       1 ACP        -1.1062
     10 O1A         0.8820    1.3039   -3.9746 O.co2     1 ACP         0.3195
     11 O2A         3.2385    1.9433   -4.9501 O.co2     1 ACP         0.3195
     12 O3A         2.3890   -0.4639   -5.0338 O.3       1 ACP         0.4672
     13 O5'         3.0198    0.5138   -2.8245 O.3       1 ACP         0.1618
     14 C5'         2.2816   -0.2918   -1.9206 C.3       1 ACP         0.1504
     15 C4'         2.7248    0.0226   -0.4980 C.3       1 ACP         0.1111
     16 O4'         2.4697    1.4219   -0.2462 O.3       1 ACP        -0.1436
     17 C3'         1.9404   -0.7419    0.5596 C.3       1 ACP         0.1111
     18 O3'         2.7418   -0.8086    1.7389 O.3       1 ACP        -0.2728
     19 C2'         0.7477    0.1630    0.7858 C.3       1 ACP         0.1111
     20 O2'         0.1373   -0.0577    2.0407 O.3       1 ACP        -0.2728
     21 C1'         1.3733    1.5427    0.6747 C.3       1 ACP         0.2693
     22 N9          0.4520    2.5240    0.1767 N.pl3     1 ACP        -0.3222
     23 C8         -0.7463    2.2774   -0.7501 C.ar      1 ACP         0.1640
     24 N7         -1.3714    3.4419   -0.9948 N.2       1 ACP        -0.1640
     25 C5         -0.6104    4.3223   -0.2723 C.ar      1 ACP         0.0820
     26 C6         -0.9062    5.7820   -0.2194 C.ar      1 ACP         0.1640
     27 N6         -1.9385    6.2713   -0.8881 N.pl3     1 ACP        -0.4916
     28 N1         -0.0613    6.4906    0.5336 N.pl3     1 ACP        -0.4390
     29 C2          1.0416    5.8662    1.2291 C.ar      1 ACP         0.5691
     30 N3          1.3146    4.5989    1.1954 N.ar      1 ACP        -0.4283
     31 C4          0.4541    3.8697    0.4273 C.ar      1 ACP         0.2226
     32 HOG3        2.1030   -5.5226   -4.5282 H         1 ACP         0.2010
     33 H3B1        2.2358   -2.0250   -7.2828 H         1 ACP        -0.0393
     34 H3B2        3.5063   -3.2195   -7.0044 H         1 ACP        -0.0393
     35 H5'1        1.2153   -0.0781   -2.0454 H         1 ACP        -0.0393
     36 H5'2        2.4645   -1.3454   -2.1547 H         1 ACP        -0.0393
     37 H4'         3.8046   -0.1390   -0.4011 H         1 ACP        -0.0393
     38 H3'         1.6787   -1.7627    0.2719 H         1 ACP        -0.0393
     39 HO3'        3.5553   -1.2733    1.4913 H         1 ACP         0.2010
     40 H2'         0.0002   -0.0084   -0.0014 H         1 ACP        -0.0393
     41 HO2'       -0.6132    0.5577    2.1063 H         1 ACP         0.2010
     42 H1'         1.7718    1.9211    1.6015 H         1 ACP        -0.0393
     43 H8         -1.1244    1.3534   -1.1987 H         1 ACP         0.0000
     44 HN61       -2.5259    5.6573   -1.4336 H         1 ACP         0.2048
     45 HN62       -2.1416    7.2600   -0.8539 H         1 ACP         0.2048
     46 H2          1.6509    6.5764    1.8088 H         1 ACP        -0.1292
     47 H47        -0.2190    7.4917    0.6033 H         1 ACP         0.2048
@<TRIPOS>BOND
     1    1    2 2
     2    1    3 1
     3    1    4 1
     4    1    8 1
     5    4   32 1
     6    5    6 2
     7    5    7 1
     8    5    8 1
     9    5   12 1
    10    8   33 1
    11    8   34 1
    12    9   10 2
    13    9   11 1
    14    9   12 1
    15    9   13 1
    16   13   14 1
    17   14   15 1
    18   14   35 1
    19   14   36 1
    20   15   16 1
    21   15   17 1
    22   15   37 1
    23   16   21 1
    24   17   18 1
    25   17   19 1
    26   17   38 1
    27   18   39 1
    28   19   20 1
    29   19   21 1
    30   19   40 1
    31   20   41 1
    32   21   22 1
    33   21   42 1
    34   22   23 ar
    35   22   31 ar
    36   23   24 ar
    37   23   43 1
    38   24   25 ar
    39   25   26 ar
    40   25   31 ar
    41   26   27 1
    42   26   28 ar
    43   27   44 1
    44   27   45 1
    45   28   29 ar
    46   28   47 1
    47   29   30 ar
    48   29   46 1
    49   30   31 ar
@<TRIPOS>SUBSTRUCTURE
     1 ACP         1 GROUP 0 A     ****
@<TRIPOS>MOLECULE
[[5-(6-amino-1,8-dihydropurine-6,8-diylium-7-id-9-yl)-3,4-dihydroxy-tetrahydrofuran-2-yl]methoxy-oxido-phosphoryl]oxy-[[hydroxy(oxido)phosphoryl]methyl]phosphinate
   47    49     1     0     0
SMALL
USER_CHARGES

@<TRIPOS>ATOM
      1 PG         -3.7348   -1.5542    5.9714 P.3       1 ACP        -1.2804
      2 O1G        -4.7295   -1.1933    7.0499 O.co2     1 ACP         0.3195
      3 O2G        -3.9984   -2.6564    4.9714 O.co2     1 ACP         0.3195
      4 O3G        -3.2812   -0.2030    5.1786 O.3       1 ACP         0.0326
      5 PB         -0.6035   -2.4264    5.8764 P.3       1 ACP        -1.2804
      6 O1B         0.4896   -2.6468    6.8958 O.co2     1 ACP         0.3195
      7 O2B        -0.4447   -1.4637    4.7221 O.co2     1 ACP         0.3195
      8 C3B        -2.1268   -1.9322    6.7980 C.3       1 ACP         0.8942
      9 PA         -0.3451   -5.0629    4.5388 P.3       1 ACP        -1.1062
     10 O1A        -1.3600   -6.0957    4.0994 O.co2     1 ACP         0.3195
     11 O2A         0.8546   -5.4655    5.3689 O.co2     1 ACP         0.3195
     12 O3A        -1.1337   -3.8632    5.3171 O.3       1 ACP         0.4672
     13 O5'         0.1597   -4.2446    3.2157 O.3       1 ACP         0.1618
     14 C5'        -0.7840   -3.8935    2.2172 C.3       1 ACP         0.1504
     15 C4'        -0.0724   -3.1466    1.1027 C.3       1 ACP         0.1111
     16 O4'        -0.8674   -3.1929   -0.0945 O.3       1 ACP        -0.1436
     17 C3'         0.1338   -1.6715    1.4027 C.3       1 ACP         0.1111
     18 O3'         1.2893   -1.4445    2.1808 O.3       1 ACP        -0.2728
     19 C2'         0.2158   -1.0724    0.0128 C.3       1 ACP         0.1111
     20 O2'         1.5141   -1.2448   -0.5513 O.3       1 ACP        -0.2728
     21 C1'        -0.7897   -1.9176   -0.7583 C.3       1 ACP         0.2693
     22 N9         -2.1040   -1.3333   -0.7704 N.pl3     1 ACP        -0.3222
     23 C8         -3.2124   -1.5345    0.2719 C.ar      1 ACP         0.1640
     24 N7         -4.2964   -0.8234   -0.0828 N.2       1 ACP        -0.1640
     25 C5         -3.8754   -0.2386   -1.2478 C.ar      1 ACP         0.0820
     26 C6         -4.7432    0.6719   -2.0470 C.ar      1 ACP         0.1640
     27 N6         -5.9725    0.9415   -1.6366 N.pl3     1 ACP        -0.4916
     28 N1         -4.1703    1.1517   -3.1536 N.pl3     1 ACP        -0.4390
     29 C2         -2.8174    0.7994   -3.5215 C.ar      1 ACP         0.5691
     30 N3         -2.0475    0.0097   -2.8393 N.ar      1 ACP        -0.4283
     31 C4         -2.6278   -0.4836   -1.7071 C.ar      1 ACP         0.2226
     32 HOG3       -3.9698    0.3234    4.7194 H         1 ACP         0.2010
     33 H3B1       -2.3343   -2.7381    7.5107 H         1 ACP        -0.0393
     34 H3B2       -1.8566   -1.0432    7.3787 H         1 ACP        -0.0393
     35 H5'1       -1.2472   -4.8069    1.8308 H         1 ACP        -0.0393
     36 H5'2       -1.5578   -3.2634    2.6671 H         1 ACP        -0.0393
     37 H4'         0.8883   -3.6447    0.8783 H         1 ACP        -0.0393
     38 H3'        -0.7368   -1.2359    1.9871 H         1 ACP        -0.0393
     39 HO3'        1.3407   -0.4871    2.3218 H         1 ACP         0.2010
     40 H2'        -0.0343   -0.0280    0.0196 H         1 ACP        -0.0393
     41 HO2'        1.4978   -0.8409   -1.4361 H         1 ACP         0.2010
     42 H1'        -0.5175   -2.1046   -1.7826 H         1 ACP        -0.0393
     43 H8         -3.2310   -2.1319    1.1889 H         1 ACP         0.0000
     44 HN61       -6.3230    0.5316   -0.7829 H         1 ACP         0.2048
     45 HN62       -6.5628    1.5584   -2.1760 H         1 ACP         0.2048
     46 H2         -2.4822    1.2710   -4.4579 H         1 ACP        -0.1292
     47 H47        -4.7200    1.7780   -3.7346 H         1 ACP         0.2048
@<TRIPOS>BOND
     1    1    2 2
     2    1    3 1
     3    1    4 1
     4    1    8 1
     5    4   32 1
     6    5    6 2
     7    5    7 1
     8    5    8 1
     9    5   12 1
    10    8   33 1
    11    8   34 1
    12    9   10 2
    13    9   11 1
    14    9   12 1
    15    9   13 1
    16   13   14 1
    17   14   15 1
    18   14   35 1
    19   14   36 1
    20   15   16 1
    21   15   17 1
    22   15   37 1
    23   16   21 1
    24   17   18 1
    25   17   19 1
    26   17   38 1
    27   18   39 1
    28   19   20 1
    29   19   21 1
    30   19   40 1
    31   20   41 1
    32   21   22 1
    33   21   42 1
    34   22   23 ar
    35   22   31 ar
    36   23   24 ar
    37   23   43 1
    38   24   25 ar
    39   25   26 ar
    40   25   31 ar
    41   26   27 1
    42   26   28 ar
    43   27   44 1
    44   27   45 1
    45   28   29 ar
    46   28   47 1
    47   29   30 ar
    48   29   46 1
    49   30   31 ar
@<TRIPOS>SUBSTRUCTURE
     1 ACP         1 GROUP 0 A     ****
@<TRIPOS>MOLECULE
[[5-(6-amino-1,8-dihydropurine-6,8-diylium-7-id-9-yl)-3,4-dihydroxy-tetrahydrofuran-2-yl]methoxy-oxido-phosphoryl]oxy-[[hydroxy(oxido)phosphoryl]methyl]phosphinate
   47    49     1     0     0
SMALL
USER_CHARGES

@<TRIPOS>ATOM
      1 PG          4.0710    2.4535   -5.7167 P.3       1 ACP        -1.2804
      2 O1G         5.2563    3.3759   -5.8816 O.co2     1 ACP         0.3195
      3 O2G         3.3948    2.2450   -4.3813 O.co2     1 ACP         0.3195
      4 O3G         2.9458    2.8108   -6.8419 O.3       1 ACP         0.0326
      5 PB          3.4342   -0.6712   -6.3541 P.3       1 ACP        -1.2804
      6 O1B         4.1989   -1.8324   -6.9453 O.co2     1 ACP         0.3195
      7 O2B         2.1083   -0.2120   -6.9155 O.co2     1 ACP         0.3195
      8 C3B         4.5649    0.7902   -6.3507 C.3       1 ACP         0.8942
      9 PA          2.6179   -2.0499   -3.8561 P.3       1 ACP        -1.1062
     10 O1A         3.4201   -3.3175   -4.0548 O.co2     1 ACP         0.3195
     11 O2A         1.1258   -2.0342   -4.1089 O.co2     1 ACP         0.3195
     12 O3A         3.3049   -0.8608   -4.7399 O.3       1 ACP         0.4672
     13 O5'         2.9202   -1.4821   -2.3524 O.3       1 ACP         0.1618
     14 C5'         2.2816   -0.2918   -1.9206 C.3       1 ACP         0.1504
     15 C4'         2.7248    0.0226   -0.4980 C.3       1 ACP         0.1111
     16 O4'         2.4697    1.4219   -0.2462 O.3       1 ACP        -0.1436
     17 C3'         1.9404   -0.7419    0.5596 C.3       1 ACP         0.1111
     18 O3'         2.7418   -0.8086    1.7389 O.3       1 ACP        -0.2728
     19 C2'         0.7477    0.1630    0.7858 C.3       1 ACP         0.1111
     20 O2'         0.1373   -0.0577    2.0407 O.3       1 ACP        -0.2728
     21 C1'         1.3733    1.5427    0.6747 C.3       1 ACP         0.2693
     22 N9          0.4520    2.5240    0.1767 N.pl3     1 ACP        -0.3222
     23 C8         -0.4598    3.4379    1.0068 C.ar      1 ACP         0.1640
     24 N7         -1.1770    4.2228    0.1845 N.2       1 ACP        -0.1640
     25 C5         -0.7330    3.8149   -1.0455 C.ar      1 ACP         0.0820
     26 C6         -1.2413    4.4029   -2.3169 C.ar      1 ACP         0.1640
     27 N6         -2.1578    5.3575   -2.2831 N.pl3     1 ACP        -0.4916
     28 N1         -0.6977    3.8860   -3.4216 N.pl3     1 ACP        -0.4390
     29 C2          0.3002    2.8419   -3.3591 C.ar      1 ACP         0.5691
     30 N3          0.7548    2.3183   -2.2631 N.ar      1 ACP        -0.4283
     31 C4          0.2027    2.8430   -1.1309 C.ar      1 ACP         0.2226
     32 HOG3        2.5623    3.7136   -6.8498 H         1 ACP         0.2010
     33 H3B1        5.4502    0.4971   -5.7756 H         1 ACP        -0.0393
     34 H3B2        4.8818    0.9326   -7.3898 H         1 ACP        -0.0393
     35 H5'1        2.5581    0.5235   -2.5966 H         1 ACP        -0.0393
     36 H5'2        1.1974   -0.4370   -1.9607 H         1 ACP        -0.0393
     37 H4'         3.8046   -0.1390   -0.4011 H         1 ACP        -0.0393
     38 H3'         1.6787   -1.7627    0.2719 H         1 ACP        -0.0393
     39 HO3'        2.2231   -1.2979    2.3952 H         1 ACP         0.2010
     40 H2'         0.0002   -0.0084   -0.0014 H         1 ACP        -0.0393
     41 HO2'       -0.6132    0.5577    2.1063 H         1 ACP         0.2010
     42 H1'         1.7718    1.9211    1.6015 H         1 ACP        -0.0393
     43 H8         -0.5892    3.5248    2.0902 H         1 ACP         0.0000
     44 HN61       -2.5128    5.6880   -1.3974 H         1 ACP         0.2048
     45 HN62       -2.5040    5.7581   -3.1431 H         1 ACP         0.2048
     46 H2          0.6550    2.5166   -4.3490 H         1 ACP        -0.1292
     47 H47        -1.0101    4.2527   -4.3160 H         1 ACP         0.2048
@<TRIPOS>BOND
     1    1    2 2
     2    1    3 1
     3    1    4 1
     4    1    8 1
     5    4   32 1
     6    5    6 2
     7    5    7 1
     8    5    8 1
     9    5   12 1
    10    8   33 1
    11    8   34 1
    12    9   10 2
    13    9   11 1
    14    9   12 1
    15    9   13 1
    16   13   14 1
    17   14   15 1
    18   14   35 1
    19   14   36 1
    20   15   16 1
    21   15   17 1
    22   15   37 1
    23   16   21 1
    24   17   18 1
    25   17   19 1
    26   17   38 1
    27   18   39 1
    28   19   20 1
    29   19   21 1
    30   19   40 1
    31   20   41 1
    32   21   22 1
    33   21   42 1
    34   22   23 ar
    35   22   31 ar
    36   23   24 ar
    37   23   43 1
    38   24   25 ar
    39   25   26 ar
    40   25   31 ar
    41   26   27 1
    42   26   28 ar
    43   27   44 1
    44   27   45 1
    45   28   29 ar
    46   28   47 1
    47   29   30 ar
    48   29   46 1
    49   30   31 ar
@<TRIPOS>SUBSTRUCTURE
     1 ACP         1 GROUP 0 A     ****
@<TRIPOS>MOLECULE
[[5-(6-amino-1,8-dihydropurine-6,8-diylium-7-id-9-yl)-3,4-dihydroxy-tetrahydrofuran-2-yl]methoxy-oxido-phosphoryl]oxy-[[hydroxy(oxido)phosphoryl]methyl]phosphinate
   47    49     1     0     0
SMALL
USER_CHARGES

@<TRIPOS>ATOM
      1 PG         -1.1348    0.1249   -5.3023 P.3       1 ACP        -1.2804
      2 O1G        -1.3227    1.1846   -6.3628 O.co2     1 ACP         0.3195
      3 O2G        -0.4628    0.4206   -3.9812 O.co2     1 ACP         0.3195
      4 O3G        -2.5564   -0.6261   -5.0289 O.3       1 ACP         0.0326
      5 PB          0.2277   -2.8244   -5.1602 P.3       1 ACP        -1.2804
      6 O1B         0.9491   -3.7307   -6.1302 O.co2     1 ACP         0.3195
      7 O2B        -0.9972   -3.2746   -4.3977 O.co2     1 ACP         0.3195
      8 C3B        -0.2306   -1.2872   -6.0773 C.3       1 ACP         0.8942
      9 PA          2.0054   -2.7672   -2.7847 P.3       1 ACP        -1.1062
     10 O1A         2.9308   -3.8905   -3.1989 O.co2     1 ACP         0.3195
     11 O2A         0.9346   -2.9961   -1.7400 O.co2     1 ACP         0.3195
     12 O3A         1.2984   -2.1600   -4.1258 O.3       1 ACP         0.4672
     13 O5'         2.9202   -1.4821   -2.3524 O.3       1 ACP         0.1618
     14 C5'         2.2816   -0.2918   -1.9206 C.3       1 ACP         0.1504
     15 C4'         2.7248    0.0226   -0.4980 C.3       1 ACP         0.1111
     16 O4'         2.4697    1.4219   -0.2462 O.3       1 ACP        -0.1436
     17 C3'         1.9404   -0.7419    0.5596 C.3       1 ACP         0.1111
     18 O3'         2.7418   -0.8086    1.7389 O.3       1 ACP        -0.2728
     19 C2'         0.7477    0.1630    0.7858 C.3       1 ACP         0.1111
     20 O2'         0.1373   -0.0577    2.0407 O.3       1 ACP        -0.2728
     21 C1'         1.3733    1.5427    0.6747 C.3       1 ACP         0.2693
     22 N9          0.4520    2.5240    0.1767 N.pl3     1 ACP        -0.3222
     23 C8          0.5793    3.3338   -1.1209 C.ar      1 ACP         0.1640
     24 N7         -0.4807    4.1508   -1.2458 N.2       1 ACP        -0.1640
     25 C5         -1.1921    3.8572   -0.1126 C.ar      1 ACP         0.0820
     26 C6         -2.4855    4.5203    0.2163 C.ar      1 ACP         0.1640
     27 N6         -2.9873    5.4319   -0.6020 N.pl3     1 ACP        -0.4916
     28 N1         -3.0414    4.1119    1.3596 N.pl3     1 ACP        -0.4390
     29 C2         -2.4169    3.1071    2.1904 C.ar      1 ACP         0.5691
     30 N3         -1.2928    2.5191    1.9210 N.ar      1 ACP        -0.4283
     31 C4         -0.7202    2.9326    0.7534 C.ar      1 ACP         0.2226
     32 HOG3       -3.3162   -0.0901   -4.7166 H         1 ACP         0.2010
     33 H3B1        0.7029   -0.8700   -6.4710 H         1 ACP        -0.0393
     34 H3B2       -0.8315   -1.6113   -6.9342 H         1 ACP        -0.0393
     35 H5'1        2.5581    0.5235   -2.5966 H         1 ACP        -0.0393
     36 H5'2        1.1974   -0.4370   -1.9607 H         1 ACP        -0.0393
     37 H4'         3.8046   -0.1390   -0.4011 H         1 ACP        -0.0393
     38 H3'         1.6787   -1.7627    0.2719 H         1 ACP        -0.0393
     39 HO3'        2.2231   -1.2979    2.3952 H         1 ACP         0.2010
     40 H2'         0.0002   -0.0084   -0.0014 H         1 ACP        -0.0393
     41 HO2'       -0.1554   -0.9852    2.0577 H         1 ACP         0.2010
     42 H1'         1.7718    1.9211    1.6015 H         1 ACP        -0.0393
     43 H8          1.3565    3.3309   -1.8916 H         1 ACP         0.0000
     44 HN61       -2.4952    5.6785   -1.4487 H         1 ACP         0.2048
     45 HN62       -3.8637    5.8828   -0.3819 H         1 ACP         0.2048
     46 H2         -2.9911    2.8734    3.1000 H         1 ACP        -0.1292
     47 H47        -3.9253    4.5332    1.6302 H         1 ACP         0.2048
@<TRIPOS>BOND
     1    1    2 2
     2    1    3 1
     3    1    4 1
     4    1    8 1
     5    4   32 1
     6    5    6 2
     7    5    7 1
     8    5    8 1
     9    5   12 1
    10    8   33 1
    11    8   34 1
    12    9   10 2
    13    9   11 1
    14    9   12 1
    15    9   13 1
    16   13   14 1
    17   14   15 1
    18   14   35 1
    19   14   36 1
    20   15   16 1
    21   15   17 1
    22   15   37 1
    23   16   21 1
    24   17   18 1
    25   17   19 1
    26   17   38 1
    27   18   39 1
    28   19   20 1
    29   19   21 1
    30   19   40 1
    31   20   41 1
    32   21   22 1
    33   21   42 1
    34   22   23 ar
    35   22   31 ar
    36   23   24 ar
    37   23   43 1
    38   24   25 ar
    39   25   26 ar
    40   25   31 ar
    41   26   27 1
    42   26   28 ar
    43   27   44 1
    44   27   45 1
    45   28   29 ar
    46   28   47 1
    47   29   30 ar
    48   29   46 1
    49   30   31 ar
@<TRIPOS>SUBSTRUCTURE
     1 ACP         1 GROUP 0 A     ****
@<TRIPOS>MOLECULE
[[5-(6-amino-1,8-dihydropurine-6,8-diylium-7-id-9-yl)-3,4-dihydroxy-tetrahydrofuran-2-yl]methoxy-oxido-phosphoryl]oxy-[[hydroxy(oxido)phosphoryl]methyl]phosphinate
   47    49     1     0     0
SMALL
USER_CHARGES

@<TRIPOS>ATOM
      1 PG         -5.3517   -6.6104    2.9796 P.3       1 ACP        -1.2804
      2 O1G        -4.4832   -5.9500    1.9345 O.co2     1 ACP         0.3195
      3 O2G        -6.8326   -6.3286    3.0886 O.co2     1 ACP         0.3195
      4 O3G        -5.1100   -8.2229    2.9448 O.3       1 ACP         0.0326
      5 PB         -2.8922   -6.7872    5.0997 P.3       1 ACP        -1.2804
      6 O1B        -2.8377   -8.2935    4.9954 O.co2     1 ACP         0.3195
      7 O2B        -2.5307   -6.0554    6.3717 O.co2     1 ACP         0.3195
      8 C3B        -4.6009   -6.2628    4.6311 C.3       1 ACP         0.8942
      9 PA         -0.5394   -6.2504    3.3727 P.3       1 ACP        -1.1062
     10 O1A        -0.2967   -7.6723    2.9158 O.co2     1 ACP         0.3195
     11 O2A         0.3368   -5.6217    4.4346 O.co2     1 ACP         0.3195
     12 O3A        -2.0977   -6.1184    3.8429 O.3       1 ACP         0.4672
     13 O5'        -0.5697   -5.2855    2.0524 O.3       1 ACP         0.1618
     14 C5'        -0.7840   -3.8935    2.2172 C.3       1 ACP         0.1504
     15 C4'        -0.0724   -3.1466    1.1027 C.3       1 ACP         0.1111
     16 O4'        -0.8674   -3.1929   -0.0945 O.3       1 ACP        -0.1436
     17 C3'         0.1338   -1.6715    1.4027 C.3       1 ACP         0.1111
     18 O3'         1.2893   -1.4445    2.1808 O.3       1 ACP        -0.2728
     19 C2'         0.2158   -1.0724    0.0128 C.3       1 ACP         0.1111
     20 O2'         1.5141   -1.2448   -0.5513 O.3       1 ACP        -0.2728
     21 C1'        -0.7897   -1.9176   -0.7583 C.3       1 ACP         0.2693
     22 N9         -2.1040   -1.3333   -0.7704 N.pl3     1 ACP        -0.3222
     23 C8         -3.2124   -1.5345    0.2719 C.ar      1 ACP         0.1640
     24 N7         -4.2964   -0.8234   -0.0828 N.2       1 ACP        -0.1640
     25 C5         -3.8754   -0.2386   -1.2478 C.ar      1 ACP         0.0820
     26 C6         -4.7432    0.6719   -2.0470 C.ar      1 ACP         0.1640
     27 N6         -5.9725    0.9415   -1.6366 N.pl3     1 ACP        -0.4916
     28 N1         -4.1703    1.1517   -3.1536 N.pl3     1 ACP        -0.4390
     29 C2         -2.8174    0.7994   -3.5215 C.ar      1 ACP         0.5691
     30 N3         -2.0475    0.0097   -2.8393 N.ar      1 ACP        -0.4283
     31 C4         -2.6278   -0.4836   -1.7071 C.ar      1 ACP         0.2226
     32 HOG3       -5.3043   -8.7072    2.1141 H         1 ACP         0.2010
     33 H3B1       -5.2763   -6.7069    5.3708 H         1 ACP        -0.0393
     34 H3B2       -4.6344   -5.1763    4.7680 H         1 ACP        -0.0393
     35 H5'1       -1.8599   -3.6946    2.1849 H         1 ACP        -0.0393
     36 H5'2       -0.3934   -3.5881    3.1930 H         1 ACP        -0.0393
     37 H4'         0.8883   -3.6447    0.8783 H         1 ACP        -0.0393
     38 H3'        -0.7368   -1.2359    1.9871 H         1 ACP        -0.0393
     39 HO3'        1.3407   -0.4871    2.3218 H         1 ACP         0.2010
     40 H2'        -0.0343   -0.0280    0.0196 H         1 ACP        -0.0393
     41 HO2'        2.1443   -0.7955    0.0378 H         1 ACP         0.2010
     42 H1'        -0.5175   -2.1046   -1.7826 H         1 ACP        -0.0393
     43 H8         -3.2310   -2.1319    1.1889 H         1 ACP         0.0000
     44 HN61       -6.3230    0.5316   -0.7829 H         1 ACP         0.2048
     45 HN62       -6.5628    1.5584   -2.1760 H         1 ACP         0.2048
     46 H2         -2.4822    1.2710   -4.4579 H         1 ACP        -0.1292
     47 H47        -4.7200    1.7780   -3.7346 H         1 ACP         0.2048
@<TRIPOS>BOND
     1    1    2 2
     2    1    3 1
     3    1    4 1
     4    1    8 1
     5    4   32 1
     6    5    6 2
     7    5    7 1
     8    5    8 1
     9    5   12 1
    10    8   33 1
    11    8   34 1
    12    9   10 2
    13    9   11 1
    14    9   12 1
    15    9   13 1
    16   13   14 1
    17   14   15 1
    18   14   35 1
    19   14   36 1
    20   15   16 1
    21   15   17 1
    22   15   37 1
    23   16   21 1
    24   17   18 1
    25   17   19 1
    26   17   38 1
    27   18   39 1
    28   19   20 1
    29   19   21 1
    30   19   40 1
    31   20   41 1
    32   21   22 1
    33   21   42 1
    34   22   23 ar
    35   22   31 ar
    36   23   24 ar
    37   23   43 1
    38   24   25 ar
    39   25   26 ar
    40   25   31 ar
    41   26   27 1
    42   26   28 ar
    43   27   44 1
    44   27   45 1
    45   28   29 ar
    46   28   47 1
    47   29   30 ar
    48   29   46 1
    49   30   31 ar
@<TRIPOS>SUBSTRUCTURE
     1 ACP         1 GROUP 0 A     ****
@<TRIPOS>MOLECULE
[[5-(6-amino-1,8-dihydropurine-6,8-diylium-7-id-9-yl)-3,4-dihydroxy-tetrahydrofuran-2-yl]methoxy-oxido-phosphoryl]oxy-[[hydroxy(oxido)phosphoryl]methyl]phosphinate
   47    49     1     0     0
SMALL
USER_CHARGES

@<TRIPOS>ATOM
      1 PG          5.0208    0.4195   -5.5628 P.3       1 ACP        -1.2804
      2 O1G         5.7887    0.9276   -6.7607 O.co2     1 ACP         0.3195
      3 O2G         5.2610    0.9527   -4.1692 O.co2     1 ACP         0.3195
      4 O3G         3.4230    0.4575   -5.8876 O.3       1 ACP         0.0326
      5 PB          4.4751   -2.4794   -4.1939 P.3       1 ACP        -1.2804
      6 O1B         5.0076   -2.0115   -2.8597 O.co2     1 ACP         0.3195
      7 O2B         4.6048   -3.9133   -4.6537 O.co2     1 ACP         0.3195
      8 C3B         5.2371   -1.4138   -5.4970 C.3       1 ACP         0.8942
      9 PA          1.5993   -2.3027   -3.4829 P.3       1 ACP        -1.1062
     10 O1A         1.4644   -3.8029   -3.3383 O.co2     1 ACP         0.3195
     11 O2A         0.4539   -1.4742   -4.0233 O.co2     1 ACP         0.3195
     12 O3A         2.9310   -1.9881   -4.3743 O.3       1 ACP         0.4672
     13 O5'         2.0818   -1.6902   -2.0452 O.3       1 ACP         0.1618
     14 C5'         2.2816   -0.2918   -1.9206 C.3       1 ACP         0.1504
     15 C4'         2.7248    0.0226   -0.4980 C.3       1 ACP         0.1111
     16 O4'         2.4697    1.4219   -0.2462 O.3       1 ACP        -0.1436
     17 C3'         1.9404   -0.7419    0.5596 C.3       1 ACP         0.1111
     18 O3'         2.7418   -0.8086    1.7389 O.3       1 ACP        -0.2728
     19 C2'         0.7477    0.1630    0.7858 C.3       1 ACP         0.1111
     20 O2'         0.1373   -0.0577    2.0407 O.3       1 ACP        -0.2728
     21 C1'         1.3733    1.5427    0.6747 C.3       1 ACP         0.2693
     22 N9          0.4520    2.5240    0.1767 N.pl3     1 ACP        -0.3222
     23 C8          0.5793    3.3338   -1.1209 C.ar      1 ACP         0.1640
     24 N7         -0.4807    4.1508   -1.2458 N.2       1 ACP        -0.1640
     25 C5         -1.1921    3.8572   -0.1126 C.ar      1 ACP         0.0820
     26 C6         -2.4855    4.5203    0.2163 C.ar      1 ACP         0.1640
     27 N6         -2.9873    5.4319   -0.6020 N.pl3     1 ACP        -0.4916
     28 N1         -3.0414    4.1119    1.3596 N.pl3     1 ACP        -0.4390
     29 C2         -2.4169    3.1071    2.1904 C.ar      1 ACP         0.5691
     30 N3         -1.2928    2.5191    1.9210 N.ar      1 ACP        -0.4283
     31 C4         -0.7202    2.9326    0.7534 C.ar      1 ACP         0.2226
     32 HOG3        3.0099    1.3206   -6.1032 H         1 ACP         0.2010
     33 H3B1        6.3174   -1.5902   -5.4504 H         1 ACP        -0.0393
     34 H3B2        4.8825   -1.8056   -6.4568 H         1 ACP        -0.0393
     35 H5'1        3.0467    0.0218   -2.6379 H         1 ACP        -0.0393
     36 H5'2        1.3432    0.2220   -2.1518 H         1 ACP        -0.0393
     37 H4'         3.8046   -0.1390   -0.4011 H         1 ACP        -0.0393
     38 H3'         1.6787   -1.7627    0.2719 H         1 ACP        -0.0393
     39 HO3'        2.2231   -1.2979    2.3952 H         1 ACP         0.2010
     40 H2'         0.0002   -0.0084   -0.0014 H         1 ACP        -0.0393
     41 HO2'       -0.1554   -0.9852    2.0577 H         1 ACP         0.2010
     42 H1'         1.7718    1.9211    1.6015 H         1 ACP        -0.0393
     43 H8          1.3565    3.3309   -1.8916 H         1 ACP         0.0000
     44 HN61       -2.4952    5.6785   -1.4487 H         1 ACP         0.2048
     45 HN62       -3.8637    5.8828   -0.3819 H         1 ACP         0.2048
     46 H2         -2.9911    2.8734    3.1000 H         1 ACP        -0.1292
     47 H47        -3.9253    4.5332    1.6302 H         1 ACP         0.2048
@<TRIPOS>BOND
     1    1    2 2
     2    1    3 1
     3    1    4 1
     4    1    8 1
     5    4   32 1
     6    5    6 2
     7    5    7 1
     8    5    8 1
     9    5   12 1
    10    8   33 1
    11    8   34 1
    12    9   10 2
    13    9   11 1
    14    9   12 1
    15    9   13 1
    16   13   14 1
    17   14   15 1
    18   14   35 1
    19   14   36 1
    20   15   16 1
    21   15   17 1
    22   15   37 1
    23   16   21 1
    24   17   18 1
    25   17   19 1
    26   17   38 1
    27   18   39 1
    28   19   20 1
    29   19   21 1
    30   19   40 1
    31   20   41 1
    32   21   22 1
    33   21   42 1
    34   22   23 ar
    35   22   31 ar
    36   23   24 ar
    37   23   43 1
    38   24   25 ar
    39   25   26 ar
    40   25   31 ar
    41   26   27 1
    42   26   28 ar
    43   27   44 1
    44   27   45 1
    45   28   29 ar
    46   28   47 1
    47   29   30 ar
    48   29   46 1
    49   30   31 ar
@<TRIPOS>SUBSTRUCTURE
     1 ACP         1 GROUP 0 A     ****
@<TRIPOS>MOLECULE
[[5-(6-amino-1,8-dihydropurine-6,8-diylium-7-id-9-yl)-3,4-dihydroxy-tetrahydrofuran-2-yl]methoxy-oxido-phosphoryl]oxy-[[hydroxy(oxido)phosphoryl]methyl]phosphinate
   47    49     1     0     0
SMALL
USER_CHARGES

@<TRIPOS>ATOM
      1 PG          1.0320   -4.2335   -3.9643 P.3       1 ACP        -1.2804
      2 O1G         2.0090   -4.2902   -2.8131 O.co2     1 ACP         0.3195
      3 O2G         0.2868   -5.4566   -4.4468 O.co2     1 ACP         0.3195
      4 O3G        -0.0273   -3.0185   -3.7166 O.3       1 ACP         0.0326
      5 PB          2.6814   -1.8362   -5.4163 P.3       1 ACP        -1.2804
      6 O1B         1.5741   -0.8418   -5.1559 O.co2     1 ACP         0.3195
      7 O2B         3.5747   -1.7453   -6.6320 O.co2     1 ACP         0.3195
      8 C3B         1.9219   -3.5207   -5.4177 C.3       1 ACP         0.8942
      9 PA          4.4771   -0.9086   -3.2433 P.3       1 ACP        -1.1062
     10 O1A         5.4067   -0.2050   -4.2080 O.co2     1 ACP         0.3195
     11 O2A         5.0200   -1.5784   -1.9995 O.co2     1 ACP         0.3195
     12 O3A         3.5986   -2.0028   -4.0787 O.3       1 ACP         0.4672
     13 O5'         3.2883    0.1336   -2.8242 O.3       1 ACP         0.1618
     14 C5'         2.2816   -0.2918   -1.9206 C.3       1 ACP         0.1504
     15 C4'         2.7248    0.0226   -0.4980 C.3       1 ACP         0.1111
     16 O4'         2.4697    1.4219   -0.2462 O.3       1 ACP        -0.1436
     17 C3'         1.9404   -0.7419    0.5596 C.3       1 ACP         0.1111
     18 O3'         2.7418   -0.8086    1.7389 O.3       1 ACP        -0.2728
     19 C2'         0.7477    0.1630    0.7858 C.3       1 ACP         0.1111
     20 O2'         0.1373   -0.0577    2.0407 O.3       1 ACP        -0.2728
     21 C1'         1.3733    1.5427    0.6747 C.3       1 ACP         0.2693
     22 N9          0.4520    2.5240    0.1767 N.pl3     1 ACP        -0.3222
     23 C8         -1.0660    2.5608    0.3999 C.ar      1 ACP         0.1640
     24 N7         -1.5852    3.6333   -0.2221 N.2       1 ACP        -0.1640
     25 C5         -0.4682    4.1996   -0.7771 C.ar      1 ACP         0.0820
     26 C6         -0.5216    5.4476   -1.5899 C.ar      1 ACP         0.1640
     27 N6         -1.6813    6.0510   -1.7982 N.pl3     1 ACP        -0.4916
     28 N1          0.6621    5.8575   -2.0523 N.pl3     1 ACP        -0.4390
     29 C2          1.8795    5.1301   -1.7717 C.ar      1 ACP         0.5691
     30 N3          1.9458    4.0434   -1.0670 N.ar      1 ACP        -0.4283
     31 C4          0.7388    3.6199   -0.5917 C.ar      1 ACP         0.2226
     32 HOG3       -0.5881   -3.0436   -2.9122 H         1 ACP         0.2010
     33 H3B1        1.2084   -3.5393   -6.2490 H         1 ACP        -0.0393
     34 H3B2        2.7296   -4.2189   -5.6637 H         1 ACP        -0.0393
     35 H5'1        1.3500    0.2325   -2.1560 H         1 ACP        -0.0393
     36 H5'2        2.1267   -1.3683   -2.0444 H         1 ACP        -0.0393
     37 H4'         3.8046   -0.1390   -0.4011 H         1 ACP        -0.0393
     38 H3'         1.6787   -1.7627    0.2719 H         1 ACP        -0.0393
     39 HO3'        2.2231   -1.2979    2.3952 H         1 ACP         0.2010
     40 H2'         0.0002   -0.0084   -0.0014 H         1 ACP        -0.0393
     41 HO2'       -0.1554   -0.9852    2.0577 H         1 ACP         0.2010
     42 H1'         1.7718    1.9211    1.6015 H         1 ACP        -0.0393
     43 H8         -1.7235    1.8833    0.9537 H         1 ACP         0.0000
     44 HN61       -2.5296    5.6672   -1.4072 H         1 ACP         0.2048
     45 HN62       -1.7205    6.8969   -2.3483 H         1 ACP         0.2048
     46 H2          2.7750    5.5878   -2.2190 H         1 ACP        -0.1292
     47 H47         0.6808    6.7046   -2.6128 H         1 ACP         0.2048
@<TRIPOS>BOND
     1    1    2 2
     2    1    3 1
     3    1    4 1
     4    1    8 1
     5    4   32 1
     6    5    6 2
     7    5    7 1
     8    5    8 1
     9    5   12 1
    10    8   33 1
    11    8   34 1
    12    9   10 2
    13    9   11 1
    14    9   12 1
    15    9   13 1
    16   13   14 1
    17   14   15 1
    18   14   35 1
    19   14   36 1
    20   15   16 1
    21   15   17 1
    22   15   37 1
    23   16   21 1
    24   17   18 1
    25   17   19 1
    26   17   38 1
    27   18   39 1
    28   19   20 1
    29   19   21 1
    30   19   40 1
    31   20   41 1
    32   21   22 1
    33   21   42 1
    34   22   23 ar
    35   22   31 ar
    36   23   24 ar
    37   23   43 1
    38   24   25 ar
    39   25   26 ar
    40   25   31 ar
    41   26   27 1
    42   26   28 ar
    43   27   44 1
    44   27   45 1
    45   28   29 ar
    46   28   47 1
    47   29   30 ar
    48   29   46 1
    49   30   31 ar
@<TRIPOS>SUBSTRUCTURE
     1 ACP         1 GROUP 0 A     ****
@<TRIPOS>MOLECULE
[[5-(6-amino-1,8-dihydropurine-6,8-diylium-7-id-9-yl)-3,4-dihydroxy-tetrahydrofuran-2-yl]methoxy-oxido-phosphoryl]oxy-[[hydroxy(oxido)phosphoryl]methyl]phosphinate
   47    49     1     0     0
SMALL
USER_CHARGES

@<TRIPOS>ATOM
      1 PG         -4.8078   -6.0019    6.3181 P.3       1 ACP        -1.2804
      2 O1G        -5.4745   -5.0581    7.2916 O.co2     1 ACP         0.3195
      3 O2G        -3.4654   -6.6347    6.6040 O.co2     1 ACP         0.3195
      4 O3G        -5.8670   -7.1598    5.8742 O.3       1 ACP         0.0326
      5 PB         -3.9180   -5.8914    3.1922 P.3       1 ACP        -1.2804
      6 O1B        -3.9931   -4.8700    2.0815 O.co2     1 ACP         0.3195
      7 O2B        -4.5033   -7.2777    3.0511 O.co2     1 ACP         0.3195
      8 C3B        -4.6716   -5.1278    4.6965 C.3       1 ACP         0.8942
      9 PA         -1.0048   -6.4109    2.9679 P.3       1 ACP        -1.1062
     10 O1A        -1.2176   -7.7423    2.2809 O.co2     1 ACP         0.3195
     11 O2A         0.1532   -6.2121    3.9218 O.co2     1 ACP         0.3195
     12 O3A        -2.3855   -6.0011    3.7378 O.3       1 ACP         0.4672
     13 O5'        -0.9728   -5.2427    1.8237 O.3       1 ACP         0.1618
     14 C5'        -0.7840   -3.8935    2.2172 C.3       1 ACP         0.1504
     15 C4'        -0.0724   -3.1466    1.1027 C.3       1 ACP         0.1111
     16 O4'        -0.8674   -3.1929   -0.0945 O.3       1 ACP        -0.1436
     17 C3'         0.1338   -1.6715    1.4027 C.3       1 ACP         0.1111
     18 O3'         1.2893   -1.4445    2.1808 O.3       1 ACP        -0.2728
     19 C2'         0.2158   -1.0724    0.0128 C.3       1 ACP         0.1111
     20 O2'         1.5141   -1.2448   -0.5513 O.3       1 ACP        -0.2728
     21 C1'        -0.7897   -1.9176   -0.7583 C.3       1 ACP         0.2693
     22 N9         -2.1040   -1.3333   -0.7704 N.pl3     1 ACP        -0.3222
     23 C8         -3.2124   -1.5345    0.2719 C.ar      1 ACP         0.1640
     24 N7         -4.2964   -0.8234   -0.0828 N.2       1 ACP        -0.1640
     25 C5         -3.8754   -0.2386   -1.2478 C.ar      1 ACP         0.0820
     26 C6         -4.7432    0.6719   -2.0470 C.ar      1 ACP         0.1640
     27 N6         -5.9725    0.9415   -1.6366 N.pl3     1 ACP        -0.4916
     28 N1         -4.1703    1.1517   -3.1536 N.pl3     1 ACP        -0.4390
     29 C2         -2.8174    0.7994   -3.5215 C.ar      1 ACP         0.5691
     30 N3         -2.0475    0.0097   -2.8393 N.ar      1 ACP        -0.4283
     31 C4         -2.6278   -0.4836   -1.7071 C.ar      1 ACP         0.2226
     32 HOG3       -6.2437   -7.7406    6.5692 H         1 ACP         0.2010
     33 H3B1       -4.1087   -4.2087    4.8939 H         1 ACP        -0.0393
     34 H3B2       -5.6883   -4.8344    4.4126 H         1 ACP        -0.0393
     35 H5'1       -1.7614   -3.4427    2.4167 H         1 ACP        -0.0393
     36 H5'2       -0.1870   -3.8723    3.1344 H         1 ACP        -0.0393
     37 H4'         0.8883   -3.6447    0.8783 H         1 ACP        -0.0393
     38 H3'        -0.7368   -1.2359    1.9871 H         1 ACP        -0.0393
     39 HO3'        1.1625   -1.9325    3.0084 H         1 ACP         0.2010
     40 H2'        -0.0343   -0.0280    0.0196 H         1 ACP        -0.0393
     41 HO2'        2.1443   -0.7955    0.0378 H         1 ACP         0.2010
     42 H1'        -0.5175   -2.1046   -1.7826 H         1 ACP        -0.0393
     43 H8         -3.2310   -2.1319    1.1889 H         1 ACP         0.0000
     44 HN61       -6.3230    0.5316   -0.7829 H         1 ACP         0.2048
     45 HN62       -6.5628    1.5584   -2.1760 H         1 ACP         0.2048
     46 H2         -2.4822    1.2710   -4.4579 H         1 ACP        -0.1292
     47 H47        -4.7200    1.7780   -3.7346 H         1 ACP         0.2048
@<TRIPOS>BOND
     1    1    2 2
     2    1    3 1
     3    1    4 1
     4    1    8 1
     5    4   32 1
     6    5    6 2
     7    5    7 1
     8    5    8 1
     9    5   12 1
    10    8   33 1
    11    8   34 1
    12    9   10 2
    13    9   11 1
    14    9   12 1
    15    9   13 1
    16   13   14 1
    17   14   15 1
    18   14   35 1
    19   14   36 1
    20   15   16 1
    21   15   17 1
    22   15   37 1
    23   16   21 1
    24   17   18 1
    25   17   19 1
    26   17   38 1
    27   18   39 1
    28   19   20 1
    29   19   21 1
    30   19   40 1
    31   20   41 1
    32   21   22 1
    33   21   42 1
    34   22   23 ar
    35   22   31 ar
    36   23   24 ar
    37   23   43 1
    38   24   25 ar
    39   25   26 ar
    40   25   31 ar
    41   26   27 1
    42   26   28 ar
    43   27   44 1
    44   27   45 1
    45   28   29 ar
    46   28   47 1
    47   29   30 ar
    48   29   46 1
    49   30   31 ar
@<TRIPOS>SUBSTRUCTURE
     1 ACP         1 GROUP 0 A     ****
@<TRIPOS>MOLECULE
[[5-(6-amino-1,8-dihydropurine-6,8-diylium-7-id-9-yl)-3,4-dihydroxy-tetrahydrofuran-2-yl]methoxy-oxido-phosphoryl]oxy-[[hydroxy(oxido)phosphoryl]methyl]phosphinate
   47    49     1     0     0
SMALL
USER_CHARGES

@<TRIPOS>ATOM
      1 PG         -0.6149   -2.2342   -5.5243 P.3       1 ACP        -1.2804
      2 O1G        -1.8019   -1.7261   -6.3090 O.co2     1 ACP         0.3195
      3 O2G        -0.3140   -1.7559   -4.1226 O.co2     1 ACP         0.3195
      4 O3G        -0.6046   -3.8648   -5.5524 O.3       1 ACP         0.0326
      5 PB          2.5989   -2.4004   -5.9926 P.3       1 ACP        -1.2804
      6 O1B         3.5539   -2.0013   -7.0932 O.co2     1 ACP         0.3195
      7 O2B         2.5311   -3.8130   -5.4596 O.co2     1 ACP         0.3195
      8 C3B         0.8968   -1.9394   -6.5442 C.3       1 ACP         0.8942
      9 PA          3.9989   -0.9668   -3.8036 P.3       1 ACP        -1.1062
     10 O1A         5.0247   -0.2515   -4.6555 O.co2     1 ACP         0.3195
     11 O2A         4.3843   -2.1858   -2.9937 O.co2     1 ACP         0.3195
     12 O3A         2.7242   -1.3549   -4.7479 O.3       1 ACP         0.4672
     13 O5'         3.2883    0.1336   -2.8242 O.3       1 ACP         0.1618
     14 C5'         2.2816   -0.2918   -1.9206 C.3       1 ACP         0.1504
     15 C4'         2.7248    0.0226   -0.4980 C.3       1 ACP         0.1111
     16 O4'         2.4697    1.4219   -0.2462 O.3       1 ACP        -0.1436
     17 C3'         1.9404   -0.7419    0.5596 C.3       1 ACP         0.1111
     18 O3'         2.7418   -0.8086    1.7389 O.3       1 ACP        -0.2728
     19 C2'         0.7477    0.1630    0.7858 C.3       1 ACP         0.1111
     20 O2'         0.1373   -0.0577    2.0407 O.3       1 ACP        -0.2728
     21 C1'         1.3733    1.5427    0.6747 C.3       1 ACP         0.2693
     22 N9          0.4520    2.5240    0.1767 N.pl3     1 ACP        -0.3222
     23 C8         -0.7463    2.2774   -0.7501 C.ar      1 ACP         0.1640
     24 N7         -1.3714    3.4419   -0.9948 N.2       1 ACP        -0.1640
     25 C5         -0.6104    4.3223   -0.2723 C.ar      1 ACP         0.0820
     26 C6         -0.9062    5.7820   -0.2194 C.ar      1 ACP         0.1640
     27 N6         -1.9385    6.2713   -0.8881 N.pl3     1 ACP        -0.4916
     28 N1         -0.0613    6.4906    0.5336 N.pl3     1 ACP        -0.4390
     29 C2          1.0416    5.8662    1.2291 C.ar      1 ACP         0.5691
     30 N3          1.3146    4.5989    1.1954 N.ar      1 ACP        -0.4283
     31 C4          0.4541    3.8697    0.4273 C.ar      1 ACP         0.2226
     32 HOG3       -1.3754   -4.3439   -5.1803 H         1 ACP         0.2010
     33 H3B1        0.9177   -0.8636   -6.7514 H         1 ACP        -0.0393
     34 H3B2        0.7360   -2.4534   -7.4983 H         1 ACP        -0.0393
     35 H5'1        1.3500    0.2325   -2.1560 H         1 ACP        -0.0393
     36 H5'2        2.1267   -1.3683   -2.0444 H         1 ACP        -0.0393
     37 H4'         3.8046   -0.1390   -0.4011 H         1 ACP        -0.0393
     38 H3'         1.6787   -1.7627    0.2719 H         1 ACP        -0.0393
     39 HO3'        3.5553   -1.2733    1.4913 H         1 ACP         0.2010
     40 H2'         0.0002   -0.0084   -0.0014 H         1 ACP        -0.0393
     41 HO2'       -0.1554   -0.9852    2.0577 H         1 ACP         0.2010
     42 H1'         1.7718    1.9211    1.6015 H         1 ACP        -0.0393
     43 H8         -1.1244    1.3534   -1.1987 H         1 ACP         0.0000
     44 HN61       -2.5259    5.6573   -1.4336 H         1 ACP         0.2048
     45 HN62       -2.1416    7.2600   -0.8539 H         1 ACP         0.2048
     46 H2          1.6509    6.5764    1.8088 H         1 ACP        -0.1292
     47 H47        -0.2190    7.4917    0.6033 H         1 ACP         0.2048
@<TRIPOS>BOND
     1    1    2 2
     2    1    3 1
     3    1    4 1
     4    1    8 1
     5    4   32 1
     6    5    6 2
     7    5    7 1
     8    5    8 1
     9    5   12 1
    10    8   33 1
    11    8   34 1
    12    9   10 2
    13    9   11 1
    14    9   12 1
    15    9   13 1
    16   13   14 1
    17   14   15 1
    18   14   35 1
    19   14   36 1
    20   15   16 1
    21   15   17 1
    22   15   37 1
    23   16   21 1
    24   17   18 1
    25   17   19 1
    26   17   38 1
    27   18   39 1
    28   19   20 1
    29   19   21 1
    30   19   40 1
    31   20   41 1
    32   21   22 1
    33   21   42 1
    34   22   23 ar
    35   22   31 ar
    36   23   24 ar
    37   23   43 1
    38   24   25 ar
    39   25   26 ar
    40   25   31 ar
    41   26   27 1
    42   26   28 ar
    43   27   44 1
    44   27   45 1
    45   28   29 ar
    46   28   47 1
    47   29   30 ar
    48   29   46 1
    49   30   31 ar
@<TRIPOS>SUBSTRUCTURE
     1 ACP         1 GROUP 0 A     ****
@<TRIPOS>MOLECULE
[[5-(6-amino-1,8-dihydropurine-6,8-diylium-7-id-9-yl)-3,4-dihydroxy-tetrahydrofuran-2-yl]methoxy-oxido-phosphoryl]oxy-[[hydroxy(oxido)phosphoryl]methyl]phosphinate
   47    49     1     0     0
SMALL
USER_CHARGES

@<TRIPOS>ATOM
      1 PG          0.8474   -4.0113    6.5299 P.3       1 ACP        -1.2804
      2 O1G         0.1984   -5.2531    5.9647 O.co2     1 ACP         0.3195
      3 O2G         1.7263   -4.0522    7.7587 O.co2     1 ACP         0.3195
      4 O3G         1.6238   -3.2149    5.3370 O.3       1 ACP         0.0326
      5 PB         -1.5988   -2.1181    5.5261 P.3       1 ACP        -1.2804
      6 O1B        -0.7230   -1.4347    4.5021 O.co2     1 ACP         0.3195
      7 O2B        -2.7412   -1.4048    6.2119 O.co2     1 ACP         0.3195
      8 C3B        -0.4900   -2.7777    6.8489 C.3       1 ACP         0.8942
      9 PA         -3.0181   -3.8920    3.6167 P.3       1 ACP        -1.1062
     10 O1A        -4.2799   -3.0579    3.6615 O.co2     1 ACP         0.3195
     11 O2A        -3.0933   -5.3964    3.4696 O.co2     1 ACP         0.3195
     12 O3A        -2.1234   -3.5455    4.9382 O.3       1 ACP         0.4672
     13 O5'        -2.0403   -3.2809    2.4568 O.3       1 ACP         0.1618
     14 C5'        -0.7840   -3.8935    2.2172 C.3       1 ACP         0.1504
     15 C4'        -0.0724   -3.1466    1.1027 C.3       1 ACP         0.1111
     16 O4'        -0.8674   -3.1929   -0.0945 O.3       1 ACP        -0.1436
     17 C3'         0.1338   -1.6715    1.4027 C.3       1 ACP         0.1111
     18 O3'         1.2893   -1.4445    2.1808 O.3       1 ACP        -0.2728
     19 C2'         0.2158   -1.0724    0.0128 C.3       1 ACP         0.1111
     20 O2'         1.5141   -1.2448   -0.5513 O.3       1 ACP        -0.2728
     21 C1'        -0.7897   -1.9176   -0.7583 C.3       1 ACP         0.2693
     22 N9         -2.1040   -1.3333   -0.7704 N.pl3     1 ACP        -0.3222
     23 C8         -3.3877   -1.9383   -0.1859 C.ar      1 ACP         0.1640
     24 N7         -4.4144   -1.0952   -0.3898 N.2       1 ACP        -0.1640
     25 C5         -3.7988   -0.0622   -1.0459 C.ar      1 ACP         0.0820
     26 C6         -4.5350    1.1514   -1.4997 C.ar      1 ACP         0.1640
     27 N6         -5.8347    1.2592   -1.2722 N.pl3     1 ACP        -0.4916
     28 N1         -3.7771    2.0576   -2.1221 N.pl3     1 ACP        -0.4390
     29 C2         -2.3607    1.8514   -2.3252 C.ar      1 ACP         0.5691
     30 N3         -1.7031    0.8030   -1.9377 N.ar      1 ACP        -0.4283
     31 C4         -2.4728   -0.1265   -1.3008 C.ar      1 ACP         0.2226
     32 HOG3        2.3429   -3.6778    4.8566 H         1 ACP         0.2010
     33 H3B1        0.0000   -1.9103    7.3049 H         1 ACP        -0.0393
     34 H3B2       -1.1479   -3.2179    7.6064 H         1 ACP        -0.0393
     35 H5'1       -0.1929   -3.8610    3.1379 H         1 ACP        -0.0393
     36 H5'2       -0.9476   -4.9382    1.9344 H         1 ACP        -0.0393
     37 H4'         0.8883   -3.6447    0.8783 H         1 ACP        -0.0393
     38 H3'        -0.7368   -1.2359    1.9871 H         1 ACP        -0.0393
     39 HO3'        1.1625   -1.9325    3.0084 H         1 ACP         0.2010
     40 H2'        -0.0343   -0.0280    0.0196 H         1 ACP        -0.0393
     41 HO2'        2.1443   -0.7955    0.0378 H         1 ACP         0.2010
     42 H1'        -0.5175   -2.1046   -1.7826 H         1 ACP        -0.0393
     43 H8         -3.5590   -2.8873    0.3318 H         1 ACP         0.0000
     44 HN61       -6.3278    0.5206   -0.7915 H         1 ACP         0.2048
     45 HN62       -6.3361    2.0806   -1.5783 H         1 ACP         0.2048
     46 H2         -1.8692    2.6833   -2.8525 H         1 ACP        -0.1292
     47 H47        -4.2310    2.9046   -2.4517 H         1 ACP         0.2048
@<TRIPOS>BOND
     1    1    2 2
     2    1    3 1
     3    1    4 1
     4    1    8 1
     5    4   32 1
     6    5    6 2
     7    5    7 1
     8    5    8 1
     9    5   12 1
    10    8   33 1
    11    8   34 1
    12    9   10 2
    13    9   11 1
    14    9   12 1
    15    9   13 1
    16   13   14 1
    17   14   15 1
    18   14   35 1
    19   14   36 1
    20   15   16 1
    21   15   17 1
    22   15   37 1
    23   16   21 1
    24   17   18 1
    25   17   19 1
    26   17   38 1
    27   18   39 1
    28   19   20 1
    29   19   21 1
    30   19   40 1
    31   20   41 1
    32   21   22 1
    33   21   42 1
    34   22   23 ar
    35   22   31 ar
    36   23   24 ar
    37   23   43 1
    38   24   25 ar
    39   25   26 ar
    40   25   31 ar
    41   26   27 1
    42   26   28 ar
    43   27   44 1
    44   27   45 1
    45   28   29 ar
    46   28   47 1
    47   29   30 ar
    48   29   46 1
    49   30   31 ar
@<TRIPOS>SUBSTRUCTURE
     1 ACP         1 GROUP 0 A     ****
@<TRIPOS>MOLECULE
[[5-(6-amino-1,8-dihydropurine-6,8-diylium-7-id-9-yl)-3,4-dihydroxy-tetrahydrofuran-2-yl]methoxy-oxido-phosphoryl]oxy-[[hydroxy(oxido)phosphoryl]methyl]phosphinate
   47    49     1     0     0
SMALL
USER_CHARGES

@<TRIPOS>ATOM
      1 PG         -0.1528    0.8076   -5.6809 P.3       1 ACP        -1.2804
      2 O1G         1.0064    1.7412   -5.4212 O.co2     1 ACP         0.3195
      3 O2G        -1.1528    0.4498   -4.6056 O.co2     1 ACP         0.3195
      4 O3G        -0.9491    1.2916   -7.0194 O.3       1 ACP         0.0326
      5 PB          1.7357   -1.8251   -5.4014 P.3       1 ACP        -1.2804
      6 O1B         2.9625   -0.9848   -5.1341 O.co2     1 ACP         0.3195
      7 O2B         1.8124   -3.1581   -6.1094 O.co2     1 ACP         0.3195
      8 C3B         0.5397   -0.7736   -6.3385 C.3       1 ACP         0.8942
      9 PA          1.2676   -2.6330   -2.5845 P.3       1 ACP        -1.1062
     10 O1A         1.8014   -4.0298   -2.8163 O.co2     1 ACP         0.3195
     11 O2A         0.1253   -2.3943   -1.6209 O.co2     1 ACP         0.3195
     12 O3A         0.8686   -1.9867   -4.0302 O.3       1 ACP         0.4672
     13 O5'         2.5237   -1.6631   -2.1889 O.3       1 ACP         0.1618
     14 C5'         2.2816   -0.2918   -1.9206 C.3       1 ACP         0.1504
     15 C4'         2.7248    0.0226   -0.4980 C.3       1 ACP         0.1111
     16 O4'         2.4697    1.4219   -0.2462 O.3       1 ACP        -0.1436
     17 C3'         1.9404   -0.7419    0.5596 C.3       1 ACP         0.1111
     18 O3'         2.7418   -0.8086    1.7389 O.3       1 ACP        -0.2728
     19 C2'         0.7477    0.1630    0.7858 C.3       1 ACP         0.1111
     20 O2'         0.1373   -0.0577    2.0407 O.3       1 ACP        -0.2728
     21 C1'         1.3733    1.5427    0.6747 C.3       1 ACP         0.2693
     22 N9          0.4520    2.5240    0.1767 N.pl3     1 ACP        -0.3222
     23 C8         -0.7463    2.2774   -0.7501 C.ar      1 ACP         0.1640
     24 N7         -1.3714    3.4419   -0.9948 N.2       1 ACP        -0.1640
     25 C5         -0.6104    4.3223   -0.2723 C.ar      1 ACP         0.0820
     26 C6         -0.9062    5.7820   -0.2194 C.ar      1 ACP         0.1640
     27 N6         -1.9385    6.2713   -0.8881 N.pl3     1 ACP        -0.4916
     28 N1         -0.0613    6.4906    0.5336 N.pl3     1 ACP        -0.4390
     29 C2          1.0416    5.8662    1.2291 C.ar      1 ACP         0.5691
     30 N3          1.3146    4.5989    1.1954 N.ar      1 ACP        -0.4283
     31 C4          0.4541    3.8697    0.4273 C.ar      1 ACP         0.2226
     32 HOG3       -1.3428    2.1900   -7.0302 H         1 ACP         0.2010
     33 H3B1        1.0254   -0.5205   -7.2874 H         1 ACP        -0.0393
     34 H3B2       -0.3158   -1.4178   -6.5702 H         1 ACP        -0.0393
     35 H5'1        2.8429    0.3140   -2.6391 H         1 ACP        -0.0393
     36 H5'2        1.2125   -0.0906   -2.0420 H         1 ACP        -0.0393
     37 H4'         3.8046   -0.1390   -0.4011 H         1 ACP        -0.0393
     38 H3'         1.6787   -1.7627    0.2719 H         1 ACP        -0.0393
     39 HO3'        2.2231   -1.2979    2.3952 H         1 ACP         0.2010
     40 H2'         0.0002   -0.0084   -0.0014 H         1 ACP        -0.0393
     41 HO2'       -0.6132    0.5577    2.1063 H         1 ACP         0.2010
     42 H1'         1.7718    1.9211    1.6015 H         1 ACP        -0.0393
     43 H8         -1.1244    1.3534   -1.1987 H         1 ACP         0.0000
     44 HN61       -2.5259    5.6573   -1.4336 H         1 ACP         0.2048
     45 HN62       -2.1416    7.2600   -0.8539 H         1 ACP         0.2048
     46 H2          1.6509    6.5764    1.8088 H         1 ACP        -0.1292
     47 H47        -0.2190    7.4917    0.6033 H         1 ACP         0.2048
@<TRIPOS>BOND
     1    1    2 2
     2    1    3 1
     3    1    4 1
     4    1    8 1
     5    4   32 1
     6    5    6 2
     7    5    7 1
     8    5    8 1
     9    5   12 1
    10    8   33 1
    11    8   34 1
    12    9   10 2
    13    9   11 1
    14    9   12 1
    15    9   13 1
    16   13   14 1
    17   14   15 1
    18   14   35 1
    19   14   36 1
    20   15   16 1
    21   15   17 1
    22   15   37 1
    23   16   21 1
    24   17   18 1
    25   17   19 1
    26   17   38 1
    27   18   39 1
    28   19   20 1
    29   19   21 1
    30   19   40 1
    31   20   41 1
    32   21   22 1
    33   21   42 1
    34   22   23 ar
    35   22   31 ar
    36   23   24 ar
    37   23   43 1
    38   24   25 ar
    39   25   26 ar
    40   25   31 ar
    41   26   27 1
    42   26   28 ar
    43   27   44 1
    44   27   45 1
    45   28   29 ar
    46   28   47 1
    47   29   30 ar
    48   29   46 1
    49   30   31 ar
@<TRIPOS>SUBSTRUCTURE
     1 ACP         1 GROUP 0 A     ****
@<TRIPOS>MOLECULE
[[5-(6-amino-1,8-dihydropurine-6,8-diylium-7-id-9-yl)-3,4-dihydroxy-tetrahydrofuran-2-yl]methoxy-oxido-phosphoryl]oxy-[[hydroxy(oxido)phosphoryl]methyl]phosphinate
   47    49     1     0     0
SMALL
USER_CHARGES

@<TRIPOS>ATOM
      1 PG         -3.3332   -4.1888    6.0915 P.3       1 ACP        -1.2804
      2 O1G        -4.4404   -3.9968    7.1015 O.co2     1 ACP         0.3195
      3 O2G        -3.4037   -3.6016    4.7006 O.co2     1 ACP         0.3195
      4 O3G        -1.9045   -3.7949    6.7722 O.3       1 ACP         0.0326
      5 PB         -1.7842   -6.7272    4.7753 P.3       1 ACP        -1.2804
      6 O1B        -1.8612   -8.2301    4.9102 O.co2     1 ACP         0.3195
      7 O2B        -0.4980   -5.9647    4.9952 O.co2     1 ACP         0.3195
      8 C3B        -3.0514   -6.0053    5.9098 C.3       1 ACP         0.8942
      9 PA         -1.8573   -6.2723    1.8436 P.3       1 ACP        -1.1062
     10 O1A        -2.8476   -5.5747    0.9368 O.co2     1 ACP         0.3195
     11 O2A        -1.3728   -7.6703    1.5255 O.co2     1 ACP         0.3195
     12 O3A        -2.4556   -6.2653    3.3632 O.3       1 ACP         0.4672
     13 O5'        -0.5697   -5.2855    2.0524 O.3       1 ACP         0.1618
     14 C5'        -0.7840   -3.8935    2.2172 C.3       1 ACP         0.1504
     15 C4'        -0.0724   -3.1466    1.1027 C.3       1 ACP         0.1111
     16 O4'        -0.8674   -3.1929   -0.0945 O.3       1 ACP        -0.1436
     17 C3'         0.1338   -1.6715    1.4027 C.3       1 ACP         0.1111
     18 O3'         1.2893   -1.4445    2.1808 O.3       1 ACP        -0.2728
     19 C2'         0.2158   -1.0724    0.0128 C.3       1 ACP         0.1111
     20 O2'         1.5141   -1.2448   -0.5513 O.3       1 ACP        -0.2728
     21 C1'        -0.7897   -1.9176   -0.7583 C.3       1 ACP         0.2693
     22 N9         -2.1040   -1.3333   -0.7704 N.pl3     1 ACP        -0.3222
     23 C8         -3.2124   -1.5345    0.2719 C.ar      1 ACP         0.1640
     24 N7         -4.2964   -0.8234   -0.0828 N.2       1 ACP        -0.1640
     25 C5         -3.8754   -0.2386   -1.2478 C.ar      1 ACP         0.0820
     26 C6         -4.7432    0.6719   -2.0470 C.ar      1 ACP         0.1640
     27 N6         -5.9725    0.9415   -1.6366 N.pl3     1 ACP        -0.4916
     28 N1         -4.1703    1.1517   -3.1536 N.pl3     1 ACP        -0.4390
     29 C2         -2.8174    0.7994   -3.5215 C.ar      1 ACP         0.5691
     30 N3         -2.0475    0.0097   -2.8393 N.ar      1 ACP        -0.4283
     31 C4         -2.6278   -0.4836   -1.7071 C.ar      1 ACP         0.2226
     32 HOG3       -1.7824   -2.8814    7.1081 H         1 ACP         0.2010
     33 H3B1       -4.0151   -6.4334    5.6123 H         1 ACP        -0.0393
     34 H3B2       -2.8181   -6.3876    6.9098 H         1 ACP        -0.0393
     35 H5'1       -1.8599   -3.6946    2.1849 H         1 ACP        -0.0393
     36 H5'2       -0.3934   -3.5881    3.1930 H         1 ACP        -0.0393
     37 H4'         0.8883   -3.6447    0.8783 H         1 ACP        -0.0393
     38 H3'        -0.7368   -1.2359    1.9871 H         1 ACP        -0.0393
     39 HO3'        1.3407   -0.4871    2.3218 H         1 ACP         0.2010
     40 H2'        -0.0343   -0.0280    0.0196 H         1 ACP        -0.0393
     41 HO2'        2.1443   -0.7955    0.0378 H         1 ACP         0.2010
     42 H1'        -0.5175   -2.1046   -1.7826 H         1 ACP        -0.0393
     43 H8         -3.2310   -2.1319    1.1889 H         1 ACP         0.0000
     44 HN61       -6.3230    0.5316   -0.7829 H         1 ACP         0.2048
     45 HN62       -6.5628    1.5584   -2.1760 H         1 ACP         0.2048
     46 H2         -2.4822    1.2710   -4.4579 H         1 ACP        -0.1292
     47 H47        -4.7200    1.7780   -3.7346 H         1 ACP         0.2048
@<TRIPOS>BOND
     1    1    2 2
     2    1    3 1
     3    1    4 1
     4    1    8 1
     5    4   32 1
     6    5    6 2
     7    5    7 1
     8    5    8 1
     9    5   12 1
    10    8   33 1
    11    8   34 1
    12    9   10 2
    13    9   11 1
    14    9   12 1
    15    9   13 1
    16   13   14 1
    17   14   15 1
    18   14   35 1
    19   14   36 1
    20   15   16 1
    21   15   17 1
    22   15   37 1
    23   16   21 1
    24   17   18 1
    25   17   19 1
    26   17   38 1
    27   18   39 1
    28   19   20 1
    29   19   21 1
    30   19   40 1
    31   20   41 1
    32   21   22 1
    33   21   42 1
    34   22   23 ar
    35   22   31 ar
    36   23   24 ar
    37   23   43 1
    38   24   25 ar
    39   25   26 ar
    40   25   31 ar
    41   26   27 1
    42   26   28 ar
    43   27   44 1
    44   27   45 1
    45   28   29 ar
    46   28   47 1
    47   29   30 ar
    48   29   46 1
    49   30   31 ar
@<TRIPOS>SUBSTRUCTURE
     1 ACP         1 GROUP 0 A     ****
@<TRIPOS>MOLECULE
[[5-(6-amino-1,8-dihydropurine-6,8-diylium-7-id-9-yl)-3,4-dihydroxy-tetrahydrofuran-2-yl]methoxy-oxido-phosphoryl]oxy-[[hydroxy(oxido)phosphoryl]methyl]phosphinate
   47    49     1     0     0
SMALL
USER_CHARGES

@<TRIPOS>ATOM
      1 PG         -4.3004   -6.3317    5.4603 P.3       1 ACP        -1.2804
      2 O1G        -4.7069   -7.7635    5.2008 O.co2     1 ACP         0.3195
      3 O2G        -4.2432   -5.3001    4.3572 O.co2     1 ACP         0.3195
      4 O3G        -5.1674   -5.7400    6.7085 O.3       1 ACP         0.0326
      5 PB         -1.1401   -7.0978    5.4933 P.3       1 ACP        -1.2804
      6 O1B        -1.4345   -8.5574    5.2373 O.co2     1 ACP         0.3195
      7 O2B         0.0542   -6.6481    6.3031 O.co2     1 ACP         0.3195
      8 C3B        -2.6429   -6.3603    6.2754 C.3       1 ACP         0.8942
      9 PA         -0.3084   -6.4368    2.7224 P.3       1 ACP        -1.1062
     10 O1A        -0.6613   -7.7629    2.0847 O.co2     1 ACP         0.3195
     11 O2A         1.1316   -6.0899    3.0334 O.co2     1 ACP         0.3195
     12 O3A        -1.1872   -6.2712    4.0888 O.3       1 ACP         0.4672
     13 O5'        -0.9728   -5.2427    1.8237 O.3       1 ACP         0.1618
     14 C5'        -0.7840   -3.8935    2.2172 C.3       1 ACP         0.1504
     15 C4'        -0.0724   -3.1466    1.1027 C.3       1 ACP         0.1111
     16 O4'        -0.8674   -3.1929   -0.0945 O.3       1 ACP        -0.1436
     17 C3'         0.1338   -1.6715    1.4027 C.3       1 ACP         0.1111
     18 O3'         1.2893   -1.4445    2.1808 O.3       1 ACP        -0.2728
     19 C2'         0.2158   -1.0724    0.0128 C.3       1 ACP         0.1111
     20 O2'         1.5141   -1.2448   -0.5513 O.3       1 ACP        -0.2728
     21 C1'        -0.7897   -1.9176   -0.7583 C.3       1 ACP         0.2693
     22 N9         -2.1040   -1.3333   -0.7704 N.pl3     1 ACP        -0.3222
     23 C8         -3.2124   -1.5345    0.2719 C.ar      1 ACP         0.1640
     24 N7         -4.2964   -0.8234   -0.0828 N.2       1 ACP        -0.1640
     25 C5         -3.8754   -0.2386   -1.2478 C.ar      1 ACP         0.0820
     26 C6         -4.7432    0.6719   -2.0470 C.ar      1 ACP         0.1640
     27 N6         -5.9725    0.9415   -1.6366 N.pl3     1 ACP        -0.4916
     28 N1         -4.1703    1.1517   -3.1536 N.pl3     1 ACP        -0.4390
     29 C2         -2.8174    0.7994   -3.5215 C.ar      1 ACP         0.5691
     30 N3         -2.0475    0.0097   -2.8393 N.ar      1 ACP        -0.4283
     31 C4         -2.6278   -0.4836   -1.7071 C.ar      1 ACP         0.2226
     32 HOG3       -6.1446   -5.7131    6.6281 H         1 ACP         0.2010
     33 H3B1       -2.7834   -6.8796    7.2299 H         1 ACP        -0.0393
     34 H3B2       -2.3881   -5.3194    6.5034 H         1 ACP        -0.0393
     35 H5'1       -1.7614   -3.4427    2.4167 H         1 ACP        -0.0393
     36 H5'2       -0.1870   -3.8723    3.1344 H         1 ACP        -0.0393
     37 H4'         0.8883   -3.6447    0.8783 H         1 ACP        -0.0393
     38 H3'        -0.7368   -1.2359    1.9871 H         1 ACP        -0.0393
     39 HO3'        1.3407   -0.4871    2.3218 H         1 ACP         0.2010
     40 H2'        -0.0343   -0.0280    0.0196 H         1 ACP        -0.0393
     41 HO2'        2.1443   -0.7955    0.0378 H         1 ACP         0.2010
     42 H1'        -0.5175   -2.1046   -1.7826 H         1 ACP        -0.0393
     43 H8         -3.2310   -2.1319    1.1889 H         1 ACP         0.0000
     44 HN61       -6.3230    0.5316   -0.7829 H         1 ACP         0.2048
     45 HN62       -6.5628    1.5584   -2.1760 H         1 ACP         0.2048
     46 H2         -2.4822    1.2710   -4.4579 H         1 ACP        -0.1292
     47 H47        -4.7200    1.7780   -3.7346 H         1 ACP         0.2048
@<TRIPOS>BOND
     1    1    2 2
     2    1    3 1
     3    1    4 1
     4    1    8 1
     5    4   32 1
     6    5    6 2
     7    5    7 1
     8    5    8 1
     9    5   12 1
    10    8   33 1
    11    8   34 1
    12    9   10 2
    13    9   11 1
    14    9   12 1
    15    9   13 1
    16   13   14 1
    17   14   15 1
    18   14   35 1
    19   14   36 1
    20   15   16 1
    21   15   17 1
    22   15   37 1
    23   16   21 1
    24   17   18 1
    25   17   19 1
    26   17   38 1
    27   18   39 1
    28   19   20 1
    29   19   21 1
    30   19   40 1
    31   20   41 1
    32   21   22 1
    33   21   42 1
    34   22   23 ar
    35   22   31 ar
    36   23   24 ar
    37   23   43 1
    38   24   25 ar
    39   25   26 ar
    40   25   31 ar
    41   26   27 1
    42   26   28 ar
    43   27   44 1
    44   27   45 1
    45   28   29 ar
    46   28   47 1
    47   29   30 ar
    48   29   46 1
    49   30   31 ar
@<TRIPOS>SUBSTRUCTURE
     1 ACP         1 GROUP 0 A     ****
@<TRIPOS>MOLECULE
[[5-(6-amino-1,8-dihydropurine-6,8-diylium-7-id-9-yl)-3,4-dihydroxy-tetrahydrofuran-2-yl]methoxy-oxido-phosphoryl]oxy-[[hydroxy(oxido)phosphoryl]methyl]phosphinate
   47    49     1     0     0
SMALL
USER_CHARGES

@<TRIPOS>ATOM
      1 PG         -2.1759   -3.3674    8.4725 P.3       1 ACP        -1.2804
      2 O1G        -1.3411   -3.7518    9.6717 O.co2     1 ACP         0.3195
      3 O2G        -3.1096   -4.3450    7.7967 O.co2     1 ACP         0.3195
      4 O3G        -2.9807   -1.9856    8.7931 O.3       1 ACP         0.0326
      5 PB         -1.5988   -2.1181    5.5261 P.3       1 ACP        -1.2804
      6 O1B        -0.3750   -1.6696    4.7619 O.co2     1 ACP         0.3195
      7 O2B        -2.7799   -1.2049    5.7609 O.co2     1 ACP         0.3195
      8 C3B        -1.0293   -2.7155    7.1793 C.3       1 ACP         0.8942
      9 PA         -3.0181   -3.8920    3.6167 P.3       1 ACP        -1.1062
     10 O1A        -4.2799   -3.0579    3.6615 O.co2     1 ACP         0.3195
     11 O2A        -3.0933   -5.3964    3.4696 O.co2     1 ACP         0.3195
     12 O3A        -2.1234   -3.5455    4.9382 O.3       1 ACP         0.4672
     13 O5'        -2.0403   -3.2809    2.4568 O.3       1 ACP         0.1618
     14 C5'        -0.7840   -3.8935    2.2172 C.3       1 ACP         0.1504
     15 C4'        -0.0724   -3.1466    1.1027 C.3       1 ACP         0.1111
     16 O4'        -0.8674   -3.1929   -0.0945 O.3       1 ACP        -0.1436
     17 C3'         0.1338   -1.6715    1.4027 C.3       1 ACP         0.1111
     18 O3'         1.2893   -1.4445    2.1808 O.3       1 ACP        -0.2728
     19 C2'         0.2158   -1.0724    0.0128 C.3       1 ACP         0.1111
     20 O2'         1.5141   -1.2448   -0.5513 O.3       1 ACP        -0.2728
     21 C1'        -0.7897   -1.9176   -0.7583 C.3       1 ACP         0.2693
     22 N9         -2.1040   -1.3333   -0.7704 N.pl3     1 ACP        -0.3222
     23 C8         -3.3877   -1.9383   -0.1859 C.ar      1 ACP         0.1640
     24 N7         -4.4144   -1.0952   -0.3898 N.2       1 ACP        -0.1640
     25 C5         -3.7988   -0.0622   -1.0459 C.ar      1 ACP         0.0820
     26 C6         -4.5350    1.1514   -1.4997 C.ar      1 ACP         0.1640
     27 N6         -5.8347    1.2592   -1.2722 N.pl3     1 ACP        -0.4916
     28 N1         -3.7771    2.0576   -2.1221 N.pl3     1 ACP        -0.4390
     29 C2         -2.3607    1.8514   -2.3252 C.ar      1 ACP         0.5691
     30 N3         -1.7031    0.8030   -1.9377 N.ar      1 ACP        -0.4283
     31 C4         -2.4728   -0.1265   -1.3008 C.ar      1 ACP         0.2226
     32 HOG3       -3.6059   -1.9729    9.5488 H         1 ACP         0.2010
     33 H3B1       -0.3028   -3.5131    6.9883 H         1 ACP        -0.0393
     34 H3B2       -0.4862   -1.8800    7.6346 H         1 ACP        -0.0393
     35 H5'1       -0.1929   -3.8610    3.1379 H         1 ACP        -0.0393
     36 H5'2       -0.9476   -4.9382    1.9344 H         1 ACP        -0.0393
     37 H4'         0.8883   -3.6447    0.8783 H         1 ACP        -0.0393
     38 H3'        -0.7368   -1.2359    1.9871 H         1 ACP        -0.0393
     39 HO3'        1.3407   -0.4871    2.3218 H         1 ACP         0.2010
     40 H2'        -0.0343   -0.0280    0.0196 H         1 ACP        -0.0393
     41 HO2'        2.1443   -0.7955    0.0378 H         1 ACP         0.2010
     42 H1'        -0.5175   -2.1046   -1.7826 H         1 ACP        -0.0393
     43 H8         -3.5590   -2.8873    0.3318 H         1 ACP         0.0000
     44 HN61       -6.3278    0.5206   -0.7915 H         1 ACP         0.2048
     45 HN62       -6.3361    2.0806   -1.5783 H         1 ACP         0.2048
     46 H2         -1.8692    2.6833   -2.8525 H         1 ACP        -0.1292
     47 H47        -4.2310    2.9046   -2.4517 H         1 ACP         0.2048
@<TRIPOS>BOND
     1    1    2 2
     2    1    3 1
     3    1    4 1
     4    1    8 1
     5    4   32 1
     6    5    6 2
     7    5    7 1
     8    5    8 1
     9    5   12 1
    10    8   33 1
    11    8   34 1
    12    9   10 2
    13    9   11 1
    14    9   12 1
    15    9   13 1
    16   13   14 1
    17   14   15 1
    18   14   35 1
    19   14   36 1
    20   15   16 1
    21   15   17 1
    22   15   37 1
    23   16   21 1
    24   17   18 1
    25   17   19 1
    26   17   38 1
    27   18   39 1
    28   19   20 1
    29   19   21 1
    30   19   40 1
    31   20   41 1
    32   21   22 1
    33   21   42 1
    34   22   23 ar
    35   22   31 ar
    36   23   24 ar
    37   23   43 1
    38   24   25 ar
    39   25   26 ar
    40   25   31 ar
    41   26   27 1
    42   26   28 ar
    43   27   44 1
    44   27   45 1
    45   28   29 ar
    46   28   47 1
    47   29   30 ar
    48   29   46 1
    49   30   31 ar
@<TRIPOS>SUBSTRUCTURE
     1 ACP         1 GROUP 0 A     ****
@<TRIPOS>MOLECULE
[[5-(6-amino-1,8-dihydropurine-6,8-diylium-7-id-9-yl)-3,4-dihydroxy-tetrahydrofuran-2-yl]methoxy-oxido-phosphoryl]oxy-[[hydroxy(oxido)phosphoryl]methyl]phosphinate
   47    49     1     0     0
SMALL
USER_CHARGES

@<TRIPOS>ATOM
      1 PG          7.5093   -1.1511   -2.7925 P.3       1 ACP        -1.2804
      2 O1G         8.0177   -2.5518   -3.0420 O.co2     1 ACP         0.3195
      3 O2G         6.5441   -0.8340   -1.6735 O.co2     1 ACP         0.3195
      4 O3G         8.7716   -0.1205   -2.7251 O.3       1 ACP         0.0326
      5 PB          5.3244   -1.3769   -5.1905 P.3       1 ACP        -1.2804
      6 O1B         5.7568   -2.7849   -5.5268 O.co2     1 ACP         0.3195
      7 O2B         4.7951   -0.4259   -6.2392 O.co2     1 ACP         0.3195
      8 C3B         6.7513   -0.5436   -4.3636 C.3       1 ACP         0.8942
      9 PA          2.8591   -2.1299   -3.7201 P.3       1 ACP        -1.1062
     10 O1A         3.0727   -3.6280   -3.7234 O.co2     1 ACP         0.3195
     11 O2A         1.8686   -1.4903   -4.6689 O.co2     1 ACP         0.3195
     12 O3A         4.3077   -1.4018   -3.9162 O.3       1 ACP         0.4672
     13 O5'         2.5237   -1.6631   -2.1889 O.3       1 ACP         0.1618
     14 C5'         2.2816   -0.2918   -1.9206 C.3       1 ACP         0.1504
     15 C4'         2.7248    0.0226   -0.4980 C.3       1 ACP         0.1111
     16 O4'         2.4697    1.4219   -0.2462 O.3       1 ACP        -0.1436
     17 C3'         1.9404   -0.7419    0.5596 C.3       1 ACP         0.1111
     18 O3'         2.7418   -0.8086    1.7389 O.3       1 ACP        -0.2728
     19 C2'         0.7477    0.1630    0.7858 C.3       1 ACP         0.1111
     20 O2'         0.1373   -0.0577    2.0407 O.3       1 ACP        -0.2728
     21 C1'         1.3733    1.5427    0.6747 C.3       1 ACP         0.2693
     22 N9          0.4520    2.5240    0.1767 N.pl3     1 ACP        -0.3222
     23 C8         -0.8593    2.9753    0.8343 C.ar      1 ACP         0.1640
     24 N7         -1.4458    3.9121    0.0693 N.2       1 ACP        -0.1640
     25 C5         -0.5581    4.0180   -0.9686 C.ar      1 ACP         0.0820
     26 C6         -0.7663    4.9543   -2.1092 C.ar      1 ACP         0.1640
     27 N6         -1.8429    5.7238   -2.1440 N.pl3     1 ACP        -0.4916
     28 N1          0.1993    4.9263   -3.0311 N.pl3     1 ACP        -0.4390
     29 C2          1.3416    4.0491   -2.9069 C.ar      1 ACP         0.5691
     30 N3          1.5401    3.2284   -1.9225 N.ar      1 ACP        -0.4283
     31 C4          0.5563    3.2529   -0.9772 C.ar      1 ACP         0.2226
     32 HOG3        9.4572   -0.2649   -2.0386 H         1 ACP         0.2010
     33 H3B1        7.5625   -0.5129   -5.0996 H         1 ACP        -0.0393
     34 H3B2        6.4363    0.4896   -4.1803 H         1 ACP        -0.0393
     35 H5'1        2.8429    0.3140   -2.6391 H         1 ACP        -0.0393
     36 H5'2        1.2125   -0.0906   -2.0420 H         1 ACP        -0.0393
     37 H4'         3.8046   -0.1390   -0.4011 H         1 ACP        -0.0393
     38 H3'         1.6787   -1.7627    0.2719 H         1 ACP        -0.0393
     39 HO3'        2.2231   -1.2979    2.3952 H         1 ACP         0.2010
     40 H2'         0.0002   -0.0084   -0.0014 H         1 ACP        -0.0393
     41 HO2'       -0.1554   -0.9852    2.0577 H         1 ACP         0.2010
     42 H1'         1.7718    1.9211    1.6015 H         1 ACP        -0.0393
     43 H8         -1.3368    2.6590    1.7670 H         1 ACP         0.0000
     44 HN61       -2.5230    5.6776   -1.3990 H         1 ACP         0.2048
     45 HN62       -1.9865    6.3594   -2.9154 H         1 ACP         0.2048
     46 H2          2.0529    4.1368   -3.7423 H         1 ACP        -0.1292
     47 H47         0.1054    5.5465   -3.8301 H         1 ACP         0.2048
@<TRIPOS>BOND
     1    1    2 2
     2    1    3 1
     3    1    4 1
     4    1    8 1
     5    4   32 1
     6    5    6 2
     7    5    7 1
     8    5    8 1
     9    5   12 1
    10    8   33 1
    11    8   34 1
    12    9   10 2
    13    9   11 1
    14    9   12 1
    15    9   13 1
    16   13   14 1
    17   14   15 1
    18   14   35 1
    19   14   36 1
    20   15   16 1
    21   15   17 1
    22   15   37 1
    23   16   21 1
    24   17   18 1
    25   17   19 1
    26   17   38 1
    27   18   39 1
    28   19   20 1
    29   19   21 1
    30   19   40 1
    31   20   41 1
    32   21   22 1
    33   21   42 1
    34   22   23 ar
    35   22   31 ar
    36   23   24 ar
    37   23   43 1
    38   24   25 ar
    39   25   26 ar
    40   25   31 ar
    41   26   27 1
    42   26   28 ar
    43   27   44 1
    44   27   45 1
    45   28   29 ar
    46   28   47 1
    47   29   30 ar
    48   29   46 1
    49   30   31 ar
@<TRIPOS>SUBSTRUCTURE
     1 ACP         1 GROUP 0 A     ****
@<TRIPOS>MOLECULE
[[5-(6-amino-1,8-dihydropurine-6,8-diylium-7-id-9-yl)-3,4-dihydroxy-tetrahydrofuran-2-yl]methoxy-oxido-phosphoryl]oxy-[[hydroxy(oxido)phosphoryl]methyl]phosphinate
   47    49     1     0     0
SMALL
USER_CHARGES

@<TRIPOS>ATOM
      1 PG          4.0442    1.0502   -7.6256 P.3       1 ACP        -1.2804
      2 O1G         3.9179    2.4600   -8.1541 O.co2     1 ACP         0.3195
      3 O2G         2.9066    0.0582   -7.7029 O.co2     1 ACP         0.3195
      4 O3G         5.3986    0.3665   -8.2239 O.3       1 ACP         0.0326
      5 PB          4.8419   -0.3188   -4.7857 P.3       1 ACP        -1.2804
      6 O1B         5.2480    0.1822   -3.4194 O.co2     1 ACP         0.3195
      7 O2B         5.6944   -1.2866   -5.5737 O.co2     1 ACP         0.3195
      8 C3B         4.5600    1.1613   -5.8553 C.3       1 ACP         0.8942
      9 PA          2.6179   -2.0499   -3.8561 P.3       1 ACP        -1.1062
     10 O1A         3.4201   -3.3175   -4.0548 O.co2     1 ACP         0.3195
     11 O2A         1.1258   -2.0342   -4.1089 O.co2     1 ACP         0.3195
     12 O3A         3.3049   -0.8608   -4.7399 O.3       1 ACP         0.4672
     13 O5'         2.9202   -1.4821   -2.3524 O.3       1 ACP         0.1618
     14 C5'         2.2816   -0.2918   -1.9206 C.3       1 ACP         0.1504
     15 C4'         2.7248    0.0226   -0.4980 C.3       1 ACP         0.1111
     16 O4'         2.4697    1.4219   -0.2462 O.3       1 ACP        -0.1436
     17 C3'         1.9404   -0.7419    0.5596 C.3       1 ACP         0.1111
     18 O3'         2.7418   -0.8086    1.7389 O.3       1 ACP        -0.2728
     19 C2'         0.7477    0.1630    0.7858 C.3       1 ACP         0.1111
     20 O2'         0.1373   -0.0577    2.0407 O.3       1 ACP        -0.2728
     21 C1'         1.3733    1.5427    0.6747 C.3       1 ACP         0.2693
     22 N9          0.4520    2.5240    0.1767 N.pl3     1 ACP        -0.3222
     23 C8         -0.4598    3.4379    1.0068 C.ar      1 ACP         0.1640
     24 N7         -1.1770    4.2228    0.1845 N.2       1 ACP        -0.1640
     25 C5         -0.7330    3.8149   -1.0455 C.ar      1 ACP         0.0820
     26 C6         -1.2413    4.4029   -2.3169 C.ar      1 ACP         0.1640
     27 N6         -2.1578    5.3575   -2.2831 N.pl3     1 ACP        -0.4916
     28 N1         -0.6977    3.8860   -3.4216 N.pl3     1 ACP        -0.4390
     29 C2          0.3002    2.8419   -3.3591 C.ar      1 ACP         0.5691
     30 N3          0.7548    2.3183   -2.2631 N.ar      1 ACP        -0.4283
     31 C4          0.2027    2.8430   -1.1309 C.ar      1 ACP         0.2226
     32 HOG3        5.4878    0.2790   -9.1968 H         1 ACP         0.2010
     33 H3B1        3.7960    1.7660   -5.3542 H         1 ACP        -0.0393
     34 H3B2        5.4944    1.7331   -5.8367 H         1 ACP        -0.0393
     35 H5'1        2.5581    0.5235   -2.5966 H         1 ACP        -0.0393
     36 H5'2        1.1974   -0.4370   -1.9607 H         1 ACP        -0.0393
     37 H4'         3.8046   -0.1390   -0.4011 H         1 ACP        -0.0393
     38 H3'         1.6787   -1.7627    0.2719 H         1 ACP        -0.0393
     39 HO3'        2.2231   -1.2979    2.3952 H         1 ACP         0.2010
     40 H2'         0.0002   -0.0084   -0.0014 H         1 ACP        -0.0393
     41 HO2'       -0.6132    0.5577    2.1063 H         1 ACP         0.2010
     42 H1'         1.7718    1.9211    1.6015 H         1 ACP        -0.0393
     43 H8         -0.5892    3.5248    2.0902 H         1 ACP         0.0000
     44 HN61       -2.5128    5.6880   -1.3974 H         1 ACP         0.2048
     45 HN62       -2.5040    5.7581   -3.1431 H         1 ACP         0.2048
     46 H2          0.6550    2.5166   -4.3490 H         1 ACP        -0.1292
     47 H47        -1.0101    4.2527   -4.3160 H         1 ACP         0.2048
@<TRIPOS>BOND
     1    1    2 2
     2    1    3 1
     3    1    4 1
     4    1    8 1
     5    4   32 1
     6    5    6 2
     7    5    7 1
     8    5    8 1
     9    5   12 1
    10    8   33 1
    11    8   34 1
    12    9   10 2
    13    9   11 1
    14    9   12 1
    15    9   13 1
    16   13   14 1
    17   14   15 1
    18   14   35 1
    19   14   36 1
    20   15   16 1
    21   15   17 1
    22   15   37 1
    23   16   21 1
    24   17   18 1
    25   17   19 1
    26   17   38 1
    27   18   39 1
    28   19   20 1
    29   19   21 1
    30   19   40 1
    31   20   41 1
    32   21   22 1
    33   21   42 1
    34   22   23 ar
    35   22   31 ar
    36   23   24 ar
    37   23   43 1
    38   24   25 ar
    39   25   26 ar
    40   25   31 ar
    41   26   27 1
    42   26   28 ar
    43   27   44 1
    44   27   45 1
    45   28   29 ar
    46   28   47 1
    47   29   30 ar
    48   29   46 1
    49   30   31 ar
@<TRIPOS>SUBSTRUCTURE
     1 ACP         1 GROUP 0 A     ****
@<TRIPOS>MOLECULE
[[5-(6-amino-1,8-dihydropurine-6,8-diylium-7-id-9-yl)-3,4-dihydroxy-tetrahydrofuran-2-yl]methoxy-oxido-phosphoryl]oxy-[[hydroxy(oxido)phosphoryl]methyl]phosphinate
   47    49     1     0     0
SMALL
USER_CHARGES

@<TRIPOS>ATOM
      1 PG          6.1746    0.8254   -5.4454 P.3       1 ACP        -1.2804
      2 O1G         7.0365   -0.2836   -6.0022 O.co2     1 ACP         0.3195
      3 O2G         5.8610    0.9362   -3.9711 O.co2     1 ACP         0.3195
      4 O3G         6.7210    2.2621   -5.9906 O.3       1 ACP         0.0326
      5 PB          3.4342   -0.6712   -6.3541 P.3       1 ACP        -1.2804
      6 O1B         4.1989   -1.8324   -6.9453 O.co2     1 ACP         0.3195
      7 O2B         2.1083   -0.2120   -6.9155 O.co2     1 ACP         0.3195
      8 C3B         4.5649    0.7902   -6.3507 C.3       1 ACP         0.8942
      9 PA          2.6179   -2.0499   -3.8561 P.3       1 ACP        -1.1062
     10 O1A         3.4201   -3.3175   -4.0548 O.co2     1 ACP         0.3195
     11 O2A         1.1258   -2.0342   -4.1089 O.co2     1 ACP         0.3195
     12 O3A         3.3049   -0.8608   -4.7399 O.3       1 ACP         0.4672
     13 O5'         2.9202   -1.4821   -2.3524 O.3       1 ACP         0.1618
     14 C5'         2.2816   -0.2918   -1.9206 C.3       1 ACP         0.1504
     15 C4'         2.7248    0.0226   -0.4980 C.3       1 ACP         0.1111
     16 O4'         2.4697    1.4219   -0.2462 O.3       1 ACP        -0.1436
     17 C3'         1.9404   -0.7419    0.5596 C.3       1 ACP         0.1111
     18 O3'         2.7418   -0.8086    1.7389 O.3       1 ACP        -0.2728
     19 C2'         0.7477    0.1630    0.7858 C.3       1 ACP         0.1111
     20 O2'         0.1373   -0.0577    2.0407 O.3       1 ACP        -0.2728
     21 C1'         1.3733    1.5427    0.6747 C.3       1 ACP         0.2693
     22 N9          0.4520    2.5240    0.1767 N.pl3     1 ACP        -0.3222
     23 C8         -0.4598    3.4379    1.0068 C.ar      1 ACP         0.1640
     24 N7         -1.1770    4.2228    0.1845 N.2       1 ACP        -0.1640
     25 C5         -0.7330    3.8149   -1.0455 C.ar      1 ACP         0.0820
     26 C6         -1.2413    4.4029   -2.3169 C.ar      1 ACP         0.1640
     27 N6         -2.1578    5.3575   -2.2831 N.pl3     1 ACP        -0.4916
     28 N1         -0.6977    3.8860   -3.4216 N.pl3     1 ACP        -0.4390
     29 C2          0.3002    2.8419   -3.3591 C.ar      1 ACP         0.5691
     30 N3          0.7548    2.3183   -2.2631 N.ar      1 ACP        -0.4283
     31 C4          0.2027    2.8430   -1.1309 C.ar      1 ACP         0.2226
     32 HOG3        7.6407    2.5257   -5.7737 H         1 ACP         0.2010
     33 H3B1        4.8020    1.0023   -7.3992 H         1 ACP        -0.0393
     34 H3B2        3.9741    1.6317   -5.9720 H         1 ACP        -0.0393
     35 H5'1        2.5581    0.5235   -2.5966 H         1 ACP        -0.0393
     36 H5'2        1.1974   -0.4370   -1.9607 H         1 ACP        -0.0393
     37 H4'         3.8046   -0.1390   -0.4011 H         1 ACP        -0.0393
     38 H3'         1.6787   -1.7627    0.2719 H         1 ACP        -0.0393
     39 HO3'        2.2231   -1.2979    2.3952 H         1 ACP         0.2010
     40 H2'         0.0002   -0.0084   -0.0014 H         1 ACP        -0.0393
     41 HO2'       -0.6132    0.5577    2.1063 H         1 ACP         0.2010
     42 H1'         1.7718    1.9211    1.6015 H         1 ACP        -0.0393
     43 H8         -0.5892    3.5248    2.0902 H         1 ACP         0.0000
     44 HN61       -2.5128    5.6880   -1.3974 H         1 ACP         0.2048
     45 HN62       -2.5040    5.7581   -3.1431 H         1 ACP         0.2048
     46 H2          0.6550    2.5166   -4.3490 H         1 ACP        -0.1292
     47 H47        -1.0101    4.2527   -4.3160 H         1 ACP         0.2048
@<TRIPOS>BOND
     1    1    2 2
     2    1    3 1
     3    1    4 1
     4    1    8 1
     5    4   32 1
     6    5    6 2
     7    5    7 1
     8    5    8 1
     9    5   12 1
    10    8   33 1
    11    8   34 1
    12    9   10 2
    13    9   11 1
    14    9   12 1
    15    9   13 1
    16   13   14 1
    17   14   15 1
    18   14   35 1
    19   14   36 1
    20   15   16 1
    21   15   17 1
    22   15   37 1
    23   16   21 1
    24   17   18 1
    25   17   19 1
    26   17   38 1
    27   18   39 1
    28   19   20 1
    29   19   21 1
    30   19   40 1
    31   20   41 1
    32   21   22 1
    33   21   42 1
    34   22   23 ar
    35   22   31 ar
    36   23   24 ar
    37   23   43 1
    38   24   25 ar
    39   25   26 ar
    40   25   31 ar
    41   26   27 1
    42   26   28 ar
    43   27   44 1
    44   27   45 1
    45   28   29 ar
    46   28   47 1
    47   29   30 ar
    48   29   46 1
    49   30   31 ar
@<TRIPOS>SUBSTRUCTURE
     1 ACP         1 GROUP 0 A     ****
@<TRIPOS>MOLECULE
[[5-(6-amino-1,8-dihydropurine-6,8-diylium-7-id-9-yl)-3,4-dihydroxy-tetrahydrofuran-2-yl]methoxy-oxido-phosphoryl]oxy-[[hydroxy(oxido)phosphoryl]methyl]phosphinate
   47    49     1     0     0
SMALL
USER_CHARGES

@<TRIPOS>ATOM
      1 PG          0.7818   -3.3260    6.9474 P.3       1 ACP        -1.2804
      2 O1G         1.6327   -2.2999    7.6587 O.co2     1 ACP         0.3195
      3 O2G         0.9560   -3.6353    5.4783 O.co2     1 ACP         0.3195
      4 O3G         0.7888   -4.7183    7.7968 O.3       1 ACP         0.0326
      5 PB         -2.4020   -3.8311    6.5190 P.3       1 ACP        -1.2804
      6 O1B        -3.6745   -3.1381    6.9470 O.co2     1 ACP         0.3195
      7 O2B        -2.1385   -5.2881    6.8221 O.co2     1 ACP         0.3195
      8 C3B        -0.9872   -2.8624    7.2077 C.3       1 ACP         0.8942
      9 PA         -3.0181   -3.8920    3.6167 P.3       1 ACP        -1.1062
     10 O1A        -4.2799   -3.0579    3.6615 O.co2     1 ACP         0.3195
     11 O2A        -3.0933   -5.3964    3.4696 O.co2     1 ACP         0.3195
     12 O3A        -2.1234   -3.5455    4.9382 O.3       1 ACP         0.4672
     13 O5'        -2.0403   -3.2809    2.4568 O.3       1 ACP         0.1618
     14 C5'        -0.7840   -3.8935    2.2172 C.3       1 ACP         0.1504
     15 C4'        -0.0724   -3.1466    1.1027 C.3       1 ACP         0.1111
     16 O4'        -0.8674   -3.1929   -0.0945 O.3       1 ACP        -0.1436
     17 C3'         0.1338   -1.6715    1.4027 C.3       1 ACP         0.1111
     18 O3'         1.2893   -1.4445    2.1808 O.3       1 ACP        -0.2728
     19 C2'         0.2158   -1.0724    0.0128 C.3       1 ACP         0.1111
     20 O2'         1.5141   -1.2448   -0.5513 O.3       1 ACP        -0.2728
     21 C1'        -0.7897   -1.9176   -0.7583 C.3       1 ACP         0.2693
     22 N9         -2.1040   -1.3333   -0.7704 N.pl3     1 ACP        -0.3222
     23 C8         -3.3877   -1.9383   -0.1859 C.ar      1 ACP         0.1640
     24 N7         -4.4144   -1.0952   -0.3898 N.2       1 ACP        -0.1640
     25 C5         -3.7988   -0.0622   -1.0459 C.ar      1 ACP         0.0820
     26 C6         -4.5350    1.1514   -1.4997 C.ar      1 ACP         0.1640
     27 N6         -5.8347    1.2592   -1.2722 N.pl3     1 ACP        -0.4916
     28 N1         -3.7771    2.0576   -2.1221 N.pl3     1 ACP        -0.4390
     29 C2         -2.3607    1.8514   -2.3252 C.ar      1 ACP         0.5691
     30 N3         -1.7031    0.8030   -1.9377 N.ar      1 ACP        -0.4283
     31 C4         -2.4728   -0.1265   -1.3008 C.ar      1 ACP         0.2226
     32 HOG3        1.6469   -5.1674    7.9518 H         1 ACP         0.2010
     33 H3B1       -1.0929   -1.8418    6.8235 H         1 ACP        -0.0393
     34 H3B2       -1.1442   -2.8223    8.2913 H         1 ACP        -0.0393
     35 H5'1       -0.1929   -3.8610    3.1379 H         1 ACP        -0.0393
     36 H5'2       -0.9476   -4.9382    1.9344 H         1 ACP        -0.0393
     37 H4'         0.8883   -3.6447    0.8783 H         1 ACP        -0.0393
     38 H3'        -0.7368   -1.2359    1.9871 H         1 ACP        -0.0393
     39 HO3'        1.1625   -1.9325    3.0084 H         1 ACP         0.2010
     40 H2'        -0.0343   -0.0280    0.0196 H         1 ACP        -0.0393
     41 HO2'        2.1443   -0.7955    0.0378 H         1 ACP         0.2010
     42 H1'        -0.5175   -2.1046   -1.7826 H         1 ACP        -0.0393
     43 H8         -3.5590   -2.8873    0.3318 H         1 ACP         0.0000
     44 HN61       -6.3278    0.5206   -0.7915 H         1 ACP         0.2048
     45 HN62       -6.3361    2.0806   -1.5783 H         1 ACP         0.2048
     46 H2         -1.8692    2.6833   -2.8525 H         1 ACP        -0.1292
     47 H47        -4.2310    2.9046   -2.4517 H         1 ACP         0.2048
@<TRIPOS>BOND
     1    1    2 2
     2    1    3 1
     3    1    4 1
     4    1    8 1
     5    4   32 1
     6    5    6 2
     7    5    7 1
     8    5    8 1
     9    5   12 1
    10    8   33 1
    11    8   34 1
    12    9   10 2
    13    9   11 1
    14    9   12 1
    15    9   13 1
    16   13   14 1
    17   14   15 1
    18   14   35 1
    19   14   36 1
    20   15   16 1
    21   15   17 1
    22   15   37 1
    23   16   21 1
    24   17   18 1
    25   17   19 1
    26   17   38 1
    27   18   39 1
    28   19   20 1
    29   19   21 1
    30   19   40 1
    31   20   41 1
    32   21   22 1
    33   21   42 1
    34   22   23 ar
    35   22   31 ar
    36   23   24 ar
    37   23   43 1
    38   24   25 ar
    39   25   26 ar
    40   25   31 ar
    41   26   27 1
    42   26   28 ar
    43   27   44 1
    44   27   45 1
    45   28   29 ar
    46   28   47 1
    47   29   30 ar
    48   29   46 1
    49   30   31 ar
@<TRIPOS>SUBSTRUCTURE
     1 ACP         1 GROUP 0 A     ****
@<TRIPOS>MOLECULE
[[5-(6-amino-1,8-dihydropurine-6,8-diylium-7-id-9-yl)-3,4-dihydroxy-tetrahydrofuran-2-yl]methoxy-oxido-phosphoryl]oxy-[[hydroxy(oxido)phosphoryl]methyl]phosphinate
   47    49     1     0     0
SMALL
USER_CHARGES

@<TRIPOS>ATOM
      1 PG         -3.1739   -4.3102    6.2699 P.3       1 ACP        -1.2804
      2 O1G        -4.3164   -3.3745    5.9507 O.co2     1 ACP         0.3195
      3 O2G        -1.7836   -4.0989    5.7162 O.co2     1 ACP         0.3195
      4 O3G        -3.0852   -4.5263    7.8840 O.3       1 ACP         0.0326
      5 PB         -4.1789   -6.4941    4.0799 P.3       1 ACP        -1.2804
      6 O1B        -5.3586   -5.6369    3.6846 O.co2     1 ACP         0.3195
      7 O2B        -4.2290   -8.0038    4.0301 O.co2     1 ACP         0.3195
      8 C3B        -3.7015   -6.0170    5.8000 C.3       1 ACP         0.8942
      9 PA         -2.4920   -5.8410    1.7274 P.3       1 ACP        -1.1062
     10 O1A        -3.3846   -4.7755    1.1294 O.co2     1 ACP         0.3195
     11 O2A        -2.4475   -7.2321    1.1329 O.co2     1 ACP         0.3195
     12 O3A        -2.8362   -5.9691    3.3186 O.3       1 ACP         0.4672
     13 O5'        -0.9728   -5.2427    1.8237 O.3       1 ACP         0.1618
     14 C5'        -0.7840   -3.8935    2.2172 C.3       1 ACP         0.1504
     15 C4'        -0.0724   -3.1466    1.1027 C.3       1 ACP         0.1111
     16 O4'        -0.8674   -3.1929   -0.0945 O.3       1 ACP        -0.1436
     17 C3'         0.1338   -1.6715    1.4027 C.3       1 ACP         0.1111
     18 O3'         1.2893   -1.4445    2.1808 O.3       1 ACP        -0.2728
     19 C2'         0.2158   -1.0724    0.0128 C.3       1 ACP         0.1111
     20 O2'         1.5141   -1.2448   -0.5513 O.3       1 ACP        -0.2728
     21 C1'        -0.7897   -1.9176   -0.7583 C.3       1 ACP         0.2693
     22 N9         -2.1040   -1.3333   -0.7704 N.pl3     1 ACP        -0.3222
     23 C8         -3.2124   -1.5345    0.2719 C.ar      1 ACP         0.1640
     24 N7         -4.2964   -0.8234   -0.0828 N.2       1 ACP        -0.1640
     25 C5         -3.8754   -0.2386   -1.2478 C.ar      1 ACP         0.0820
     26 C6         -4.7432    0.6719   -2.0470 C.ar      1 ACP         0.1640
     27 N6         -5.9725    0.9415   -1.6366 N.pl3     1 ACP        -0.4916
     28 N1         -4.1703    1.1517   -3.1536 N.pl3     1 ACP        -0.4390
     29 C2         -2.8174    0.7994   -3.5215 C.ar      1 ACP         0.5691
     30 N3         -2.0475    0.0097   -2.8393 N.ar      1 ACP        -0.4283
     31 C4         -2.6278   -0.4836   -1.7071 C.ar      1 ACP         0.2226
     32 HOG3       -2.9341   -3.7419    8.4533 H         1 ACP         0.2010
     33 H3B1       -4.5594   -6.2557    6.4383 H         1 ACP        -0.0393
     34 H3B2       -2.8836   -6.6875    6.0863 H         1 ACP        -0.0393
     35 H5'1       -1.7614   -3.4427    2.4167 H         1 ACP        -0.0393
     36 H5'2       -0.1870   -3.8723    3.1344 H         1 ACP        -0.0393
     37 H4'         0.8883   -3.6447    0.8783 H         1 ACP        -0.0393
     38 H3'        -0.7368   -1.2359    1.9871 H         1 ACP        -0.0393
     39 HO3'        1.3407   -0.4871    2.3218 H         1 ACP         0.2010
     40 H2'        -0.0343   -0.0280    0.0196 H         1 ACP        -0.0393
     41 HO2'        2.1443   -0.7955    0.0378 H         1 ACP         0.2010
     42 H1'        -0.5175   -2.1046   -1.7826 H         1 ACP        -0.0393
     43 H8         -3.2310   -2.1319    1.1889 H         1 ACP         0.0000
     44 HN61       -6.3230    0.5316   -0.7829 H         1 ACP         0.2048
     45 HN62       -6.5628    1.5584   -2.1760 H         1 ACP         0.2048
     46 H2         -2.4822    1.2710   -4.4579 H         1 ACP        -0.1292
     47 H47        -4.7200    1.7780   -3.7346 H         1 ACP         0.2048
@<TRIPOS>BOND
     1    1    2 2
     2    1    3 1
     3    1    4 1
     4    1    8 1
     5    4   32 1
     6    5    6 2
     7    5    7 1
     8    5    8 1
     9    5   12 1
    10    8   33 1
    11    8   34 1
    12    9   10 2
    13    9   11 1
    14    9   12 1
    15    9   13 1
    16   13   14 1
    17   14   15 1
    18   14   35 1
    19   14   36 1
    20   15   16 1
    21   15   17 1
    22   15   37 1
    23   16   21 1
    24   17   18 1
    25   17   19 1
    26   17   38 1
    27   18   39 1
    28   19   20 1
    29   19   21 1
    30   19   40 1
    31   20   41 1
    32   21   22 1
    33   21   42 1
    34   22   23 ar
    35   22   31 ar
    36   23   24 ar
    37   23   43 1
    38   24   25 ar
    39   25   26 ar
    40   25   31 ar
    41   26   27 1
    42   26   28 ar
    43   27   44 1
    44   27   45 1
    45   28   29 ar
    46   28   47 1
    47   29   30 ar
    48   29   46 1
    49   30   31 ar
@<TRIPOS>SUBSTRUCTURE
     1 ACP         1 GROUP 0 A     ****
@<TRIPOS>MOLECULE
[[5-(6-amino-1,8-dihydropurine-6,8-diylium-7-id-9-yl)-3,4-dihydroxy-tetrahydrofuran-2-yl]methoxy-oxido-phosphoryl]oxy-[[hydroxy(oxido)phosphoryl]methyl]phosphinate
   47    49     1     0     0
SMALL
USER_CHARGES

@<TRIPOS>ATOM
      1 PG         -2.0535    0.8740   -3.3896 P.3       1 ACP        -1.2804
      2 O1G        -0.9197    0.8870   -2.3910 O.co2     1 ACP         0.3195
      3 O2G        -3.3822    1.5356   -3.1052 O.co2     1 ACP         0.3195
      4 O3G        -1.5023    1.3713   -4.8417 O.3       1 ACP         0.0326
      5 PB         -1.1403   -2.0090   -4.5853 P.3       1 ACP        -1.2804
      6 O1B        -0.7271   -1.3943   -5.9021 O.co2     1 ACP         0.3195
      7 O2B        -1.6780   -3.4182   -4.4890 O.co2     1 ACP         0.3195
      8 C3B        -2.3963   -0.8887   -3.8228 C.3       1 ACP         0.8942
      9 PA          1.5993   -2.3027   -3.4829 P.3       1 ACP        -1.1062
     10 O1A         2.3380   -1.5710   -4.5823 O.co2     1 ACP         0.3195
     11 O2A         1.6167   -3.8146   -3.4164 O.co2     1 ACP         0.3195
     12 O3A         0.0447   -1.8028   -3.4846 O.3       1 ACP         0.4672
     13 O5'         2.0818   -1.6902   -2.0452 O.3       1 ACP         0.1618
     14 C5'         2.2816   -0.2918   -1.9206 C.3       1 ACP         0.1504
     15 C4'         2.7248    0.0226   -0.4980 C.3       1 ACP         0.1111
     16 O4'         2.4697    1.4219   -0.2462 O.3       1 ACP        -0.1436
     17 C3'         1.9404   -0.7419    0.5596 C.3       1 ACP         0.1111
     18 O3'         2.7418   -0.8086    1.7389 O.3       1 ACP        -0.2728
     19 C2'         0.7477    0.1630    0.7858 C.3       1 ACP         0.1111
     20 O2'         0.1373   -0.0577    2.0407 O.3       1 ACP        -0.2728
     21 C1'         1.3733    1.5427    0.6747 C.3       1 ACP         0.2693
     22 N9          0.4520    2.5240    0.1767 N.pl3     1 ACP        -0.3222
     23 C8          0.5793    3.3338   -1.1209 C.ar      1 ACP         0.1640
     24 N7         -0.4807    4.1508   -1.2458 N.2       1 ACP        -0.1640
     25 C5         -1.1921    3.8572   -0.1126 C.ar      1 ACP         0.0820
     26 C6         -2.4855    4.5203    0.2163 C.ar      1 ACP         0.1640
     27 N6         -2.9873    5.4319   -0.6020 N.pl3     1 ACP        -0.4916
     28 N1         -3.0414    4.1119    1.3596 N.pl3     1 ACP        -0.4390
     29 C2         -2.4169    3.1071    2.1904 C.ar      1 ACP         0.5691
     30 N3         -1.2928    2.5191    1.9210 N.ar      1 ACP        -0.4283
     31 C4         -0.7202    2.9326    0.7534 C.ar      1 ACP         0.2226
     32 HOG3       -1.1156    2.2700   -4.9125 H         1 ACP         0.2010
     33 H3B1       -3.2532   -0.8720   -4.5053 H         1 ACP        -0.0393
     34 H3B2       -2.7226   -1.3803   -2.8996 H         1 ACP        -0.0393
     35 H5'1        3.0467    0.0218   -2.6379 H         1 ACP        -0.0393
     36 H5'2        1.3432    0.2220   -2.1518 H         1 ACP        -0.0393
     37 H4'         3.8046   -0.1390   -0.4011 H         1 ACP        -0.0393
     38 H3'         1.6787   -1.7627    0.2719 H         1 ACP        -0.0393
     39 HO3'        2.2231   -1.2979    2.3952 H         1 ACP         0.2010
     40 H2'         0.0002   -0.0084   -0.0014 H         1 ACP        -0.0393
     41 HO2'       -0.1554   -0.9852    2.0577 H         1 ACP         0.2010
     42 H1'         1.7718    1.9211    1.6015 H         1 ACP        -0.0393
     43 H8          1.3565    3.3309   -1.8916 H         1 ACP         0.0000
     44 HN61       -2.4952    5.6785   -1.4487 H         1 ACP         0.2048
     45 HN62       -3.8637    5.8828   -0.3819 H         1 ACP         0.2048
     46 H2         -2.9911    2.8734    3.1000 H         1 ACP        -0.1292
     47 H47        -3.9253    4.5332    1.6302 H         1 ACP         0.2048
@<TRIPOS>BOND
     1    1    2 2
     2    1    3 1
     3    1    4 1
     4    1    8 1
     5    4   32 1
     6    5    6 2
     7    5    7 1
     8    5    8 1
     9    5   12 1
    10    8   33 1
    11    8   34 1
    12    9   10 2
    13    9   11 1
    14    9   12 1
    15    9   13 1
    16   13   14 1
    17   14   15 1
    18   14   35 1
    19   14   36 1
    20   15   16 1
    21   15   17 1
    22   15   37 1
    23   16   21 1
    24   17   18 1
    25   17   19 1
    26   17   38 1
    27   18   39 1
    28   19   20 1
    29   19   21 1
    30   19   40 1
    31   20   41 1
    32   21   22 1
    33   21   42 1
    34   22   23 ar
    35   22   31 ar
    36   23   24 ar
    37   23   43 1
    38   24   25 ar
    39   25   26 ar
    40   25   31 ar
    41   26   27 1
    42   26   28 ar
    43   27   44 1
    44   27   45 1
    45   28   29 ar
    46   28   47 1
    47   29   30 ar
    48   29   46 1
    49   30   31 ar
@<TRIPOS>SUBSTRUCTURE
     1 ACP         1 GROUP 0 A     ****
@<TRIPOS>MOLECULE
[[5-(6-amino-1,8-dihydropurine-6,8-diylium-7-id-9-yl)-3,4-dihydroxy-tetrahydrofuran-2-yl]methoxy-oxido-phosphoryl]oxy-[[hydroxy(oxido)phosphoryl]methyl]phosphinate
   47    49     1     0     0
SMALL
USER_CHARGES

@<TRIPOS>ATOM
      1 PG         -2.0259   -7.8082    7.1645 P.3       1 ACP        -1.2804
      2 O1G        -2.1873   -7.4738    8.6291 O.co2     1 ACP         0.3195
      3 O2G        -0.6790   -8.1248    6.5563 O.co2     1 ACP         0.3195
      4 O3G        -3.0910   -8.9730    6.7541 O.3       1 ACP         0.0326
      5 PB         -2.7936   -6.3845    4.3434 P.3       1 ACP        -1.2804
      6 O1B        -3.4686   -5.0978    3.9293 O.co2     1 ACP         0.3195
      7 O2B        -3.2838   -7.7361    3.8772 O.co2     1 ACP         0.3195
      8 C3B        -2.7586   -6.4202    6.1904 C.3       1 ACP         0.8942
      9 PA         -0.3084   -6.4368    2.7224 P.3       1 ACP        -1.1062
     10 O1A        -0.6613   -7.7629    2.0847 O.co2     1 ACP         0.3195
     11 O2A         1.1316   -6.0899    3.0334 O.co2     1 ACP         0.3195
     12 O3A        -1.1872   -6.2712    4.0888 O.3       1 ACP         0.4672
     13 O5'        -0.9728   -5.2427    1.8237 O.3       1 ACP         0.1618
     14 C5'        -0.7840   -3.8935    2.2172 C.3       1 ACP         0.1504
     15 C4'        -0.0724   -3.1466    1.1027 C.3       1 ACP         0.1111
     16 O4'        -0.8674   -3.1929   -0.0945 O.3       1 ACP        -0.1436
     17 C3'         0.1338   -1.6715    1.4027 C.3       1 ACP         0.1111
     18 O3'         1.2893   -1.4445    2.1808 O.3       1 ACP        -0.2728
     19 C2'         0.2158   -1.0724    0.0128 C.3       1 ACP         0.1111
     20 O2'         1.5141   -1.2448   -0.5513 O.3       1 ACP        -0.2728
     21 C1'        -0.7897   -1.9176   -0.7583 C.3       1 ACP         0.2693
     22 N9         -2.1040   -1.3333   -0.7704 N.pl3     1 ACP        -0.3222
     23 C8         -3.2124   -1.5345    0.2719 C.ar      1 ACP         0.1640
     24 N7         -4.2964   -0.8234   -0.0828 N.2       1 ACP        -0.1640
     25 C5         -3.8754   -0.2386   -1.2478 C.ar      1 ACP         0.0820
     26 C6         -4.7432    0.6719   -2.0470 C.ar      1 ACP         0.1640
     27 N6         -5.9725    0.9415   -1.6366 N.pl3     1 ACP        -0.4916
     28 N1         -4.1703    1.1517   -3.1536 N.pl3     1 ACP        -0.4390
     29 C2         -2.8174    0.7994   -3.5215 C.ar      1 ACP         0.5691
     30 N3         -2.0475    0.0097   -2.8393 N.ar      1 ACP        -0.4283
     31 C4         -2.6278   -0.4836   -1.7071 C.ar      1 ACP         0.2226
     32 HOG3       -3.0404   -9.8369    7.2160 H         1 ACP         0.2010
     33 H3B1       -2.2307   -5.5145    6.5090 H         1 ACP        -0.0393
     34 H3B2       -3.8001   -6.3242    6.5168 H         1 ACP        -0.0393
     35 H5'1       -1.7614   -3.4427    2.4167 H         1 ACP        -0.0393
     36 H5'2       -0.1870   -3.8723    3.1344 H         1 ACP        -0.0393
     37 H4'         0.8883   -3.6447    0.8783 H         1 ACP        -0.0393
     38 H3'        -0.7368   -1.2359    1.9871 H         1 ACP        -0.0393
     39 HO3'        1.3407   -0.4871    2.3218 H         1 ACP         0.2010
     40 H2'        -0.0343   -0.0280    0.0196 H         1 ACP        -0.0393
     41 HO2'        2.1443   -0.7955    0.0378 H         1 ACP         0.2010
     42 H1'        -0.5175   -2.1046   -1.7826 H         1 ACP        -0.0393
     43 H8         -3.2310   -2.1319    1.1889 H         1 ACP         0.0000
     44 HN61       -6.3230    0.5316   -0.7829 H         1 ACP         0.2048
     45 HN62       -6.5628    1.5584   -2.1760 H         1 ACP         0.2048
     46 H2         -2.4822    1.2710   -4.4579 H         1 ACP        -0.1292
     47 H47        -4.7200    1.7780   -3.7346 H         1 ACP         0.2048
@<TRIPOS>BOND
     1    1    2 2
     2    1    3 1
     3    1    4 1
     4    1    8 1
     5    4   32 1
     6    5    6 2
     7    5    7 1
     8    5    8 1
     9    5   12 1
    10    8   33 1
    11    8   34 1
    12    9   10 2
    13    9   11 1
    14    9   12 1
    15    9   13 1
    16   13   14 1
    17   14   15 1
    18   14   35 1
    19   14   36 1
    20   15   16 1
    21   15   17 1
    22   15   37 1
    23   16   21 1
    24   17   18 1
    25   17   19 1
    26   17   38 1
    27   18   39 1
    28   19   20 1
    29   19   21 1
    30   19   40 1
    31   20   41 1
    32   21   22 1
    33   21   42 1
    34   22   23 ar
    35   22   31 ar
    36   23   24 ar
    37   23   43 1
    38   24   25 ar
    39   25   26 ar
    40   25   31 ar
    41   26   27 1
    42   26   28 ar
    43   27   44 1
    44   27   45 1
    45   28   29 ar
    46   28   47 1
    47   29   30 ar
    48   29   46 1
    49   30   31 ar
@<TRIPOS>SUBSTRUCTURE
     1 ACP         1 GROUP 0 A     ****
@<TRIPOS>MOLECULE
[[5-(6-amino-1,8-dihydropurine-6,8-diylium-7-id-9-yl)-3,4-dihydroxy-tetrahydrofuran-2-yl]methoxy-oxido-phosphoryl]oxy-[[hydroxy(oxido)phosphoryl]methyl]phosphinate
   47    49     1     0     0
SMALL
USER_CHARGES

@<TRIPOS>ATOM
      1 PG          0.4265    0.7527   -6.0514 P.3       1 ACP        -1.2804
      2 O1G         0.1335    1.4466   -7.3612 O.co2     1 ACP         0.3195
      3 O2G         1.5354    1.2085   -5.1312 O.co2     1 ACP         0.3195
      4 O3G        -0.9550    0.6003   -5.1981 O.3       1 ACP         0.0326
      5 PB          1.1090   -2.2866   -5.1176 P.3       1 ACP        -1.2804
      6 O1B         1.2707   -3.6202   -5.8089 O.co2     1 ACP         0.3195
      7 O2B         0.1303   -2.0815   -3.9842 O.co2     1 ACP         0.3195
      8 C3B         0.7134   -1.0349   -6.4179 C.3       1 ACP         0.8942
      9 PA          3.5286   -2.0718   -3.4129 P.3       1 ACP        -1.1062
     10 O1A         4.6988   -1.1125   -3.4065 O.co2     1 ACP         0.3195
     11 O2A         3.7579   -3.5677   -3.3967 O.co2     1 ACP         0.3195
     12 O3A         2.5709   -1.7089   -4.6849 O.3       1 ACP         0.4672
     13 O5'         2.5237   -1.6631   -2.1889 O.3       1 ACP         0.1618
     14 C5'         2.2816   -0.2918   -1.9206 C.3       1 ACP         0.1504
     15 C4'         2.7248    0.0226   -0.4980 C.3       1 ACP         0.1111
     16 O4'         2.4697    1.4219   -0.2462 O.3       1 ACP        -0.1436
     17 C3'         1.9404   -0.7419    0.5596 C.3       1 ACP         0.1111
     18 O3'         2.7418   -0.8086    1.7389 O.3       1 ACP        -0.2728
     19 C2'         0.7477    0.1630    0.7858 C.3       1 ACP         0.1111
     20 O2'         0.1373   -0.0577    2.0407 O.3       1 ACP        -0.2728
     21 C1'         1.3733    1.5427    0.6747 C.3       1 ACP         0.2693
     22 N9          0.4520    2.5240    0.1767 N.pl3     1 ACP        -0.3222
     23 C8         -1.0660    2.5608    0.3999 C.ar      1 ACP         0.1640
     24 N7         -1.5852    3.6333   -0.2221 N.2       1 ACP        -0.1640
     25 C5         -0.4682    4.1996   -0.7771 C.ar      1 ACP         0.0820
     26 C6         -0.5216    5.4476   -1.5899 C.ar      1 ACP         0.1640
     27 N6         -1.6813    6.0510   -1.7982 N.pl3     1 ACP        -0.4916
     28 N1          0.6621    5.8575   -2.0523 N.pl3     1 ACP        -0.4390
     29 C2          1.8795    5.1301   -1.7717 C.ar      1 ACP         0.5691
     30 N3          1.9458    4.0434   -1.0670 N.ar      1 ACP        -0.4283
     31 C4          0.7388    3.6199   -0.5917 C.ar      1 ACP         0.2226
     32 HOG3       -1.4424    1.4139   -4.9479 H         1 ACP         0.2010
     33 H3B1        1.5353   -1.0679   -7.1416 H         1 ACP        -0.0393
     34 H3B2       -0.1861   -1.3984   -6.9271 H         1 ACP        -0.0393
     35 H5'1        2.8429    0.3140   -2.6391 H         1 ACP        -0.0393
     36 H5'2        1.2125   -0.0906   -2.0420 H         1 ACP        -0.0393
     37 H4'         3.8046   -0.1390   -0.4011 H         1 ACP        -0.0393
     38 H3'         1.6787   -1.7627    0.2719 H         1 ACP        -0.0393
     39 HO3'        2.2231   -1.2979    2.3952 H         1 ACP         0.2010
     40 H2'         0.0002   -0.0084   -0.0014 H         1 ACP        -0.0393
     41 HO2'       -0.1554   -0.9852    2.0577 H         1 ACP         0.2010
     42 H1'         1.7718    1.9211    1.6015 H         1 ACP        -0.0393
     43 H8         -1.7235    1.8833    0.9537 H         1 ACP         0.0000
     44 HN61       -2.5296    5.6672   -1.4072 H         1 ACP         0.2048
     45 HN62       -1.7205    6.8969   -2.3483 H         1 ACP         0.2048
     46 H2          2.7750    5.5878   -2.2190 H         1 ACP        -0.1292
     47 H47         0.6808    6.7046   -2.6128 H         1 ACP         0.2048
@<TRIPOS>BOND
     1    1    2 2
     2    1    3 1
     3    1    4 1
     4    1    8 1
     5    4   32 1
     6    5    6 2
     7    5    7 1
     8    5    8 1
     9    5   12 1
    10    8   33 1
    11    8   34 1
    12    9   10 2
    13    9   11 1
    14    9   12 1
    15    9   13 1
    16   13   14 1
    17   14   15 1
    18   14   35 1
    19   14   36 1
    20   15   16 1
    21   15   17 1
    22   15   37 1
    23   16   21 1
    24   17   18 1
    25   17   19 1
    26   17   38 1
    27   18   39 1
    28   19   20 1
    29   19   21 1
    30   19   40 1
    31   20   41 1
    32   21   22 1
    33   21   42 1
    34   22   23 ar
    35   22   31 ar
    36   23   24 ar
    37   23   43 1
    38   24   25 ar
    39   25   26 ar
    40   25   31 ar
    41   26   27 1
    42   26   28 ar
    43   27   44 1
    44   27   45 1
    45   28   29 ar
    46   28   47 1
    47   29   30 ar
    48   29   46 1
    49   30   31 ar
@<TRIPOS>SUBSTRUCTURE
     1 ACP         1 GROUP 0 A     ****
@<TRIPOS>MOLECULE
[[5-(6-amino-1,8-dihydropurine-6,8-diylium-7-id-9-yl)-3,4-dihydroxy-tetrahydrofuran-2-yl]methoxy-oxido-phosphoryl]oxy-[[hydroxy(oxido)phosphoryl]methyl]phosphinate
   47    49     1     0     0
SMALL
USER_CHARGES

@<TRIPOS>ATOM
      1 PG          3.6207   -6.7185   -0.2853 P.3       1 ACP        -1.2804
      2 O1G         4.7535   -5.9956   -0.9760 O.co2     1 ACP         0.3195
      3 O2G         2.1755   -6.5014   -0.6706 O.co2     1 ACP         0.3195
      4 O3G         3.9372   -8.3181   -0.2552 O.3       1 ACP         0.0326
      5 PB          2.5919   -7.0628    2.7804 P.3       1 ACP        -1.2804
      6 O1B         3.0420   -6.5669    4.1347 O.co2     1 ACP         0.3195
      7 O2B         2.4156   -8.5335    2.4801 O.co2     1 ACP         0.3195
      8 C3B         3.7654   -6.3830    1.5254 C.3       1 ACP         0.8942
      9 PA         -0.3084   -6.4368    2.7224 P.3       1 ACP        -1.1062
     10 O1A        -0.4652   -6.0746    4.1832 O.co2     1 ACP         0.3195
     11 O2A        -0.7823   -7.7780    2.2055 O.co2     1 ACP         0.3195
     12 O3A         1.2604   -6.2482    2.3095 O.3       1 ACP         0.4672
     13 O5'        -0.9728   -5.2427    1.8237 O.3       1 ACP         0.1618
     14 C5'        -0.7840   -3.8935    2.2172 C.3       1 ACP         0.1504
     15 C4'        -0.0724   -3.1466    1.1027 C.3       1 ACP         0.1111
     16 O4'        -0.8674   -3.1929   -0.0945 O.3       1 ACP        -0.1436
     17 C3'         0.1338   -1.6715    1.4027 C.3       1 ACP         0.1111
     18 O3'         1.2893   -1.4445    2.1808 O.3       1 ACP        -0.2728
     19 C2'         0.2158   -1.0724    0.0128 C.3       1 ACP         0.1111
     20 O2'         1.5141   -1.2448   -0.5513 O.3       1 ACP        -0.2728
     21 C1'        -0.7897   -1.9176   -0.7583 C.3       1 ACP         0.2693
     22 N9         -2.1040   -1.3333   -0.7704 N.pl3     1 ACP        -0.3222
     23 C8         -3.2124   -1.5345    0.2719 C.ar      1 ACP         0.1640
     24 N7         -4.2964   -0.8234   -0.0828 N.2       1 ACP        -0.1640
     25 C5         -3.8754   -0.2386   -1.2478 C.ar      1 ACP         0.0820
     26 C6         -4.7432    0.6719   -2.0470 C.ar      1 ACP         0.1640
     27 N6         -5.9725    0.9415   -1.6366 N.pl3     1 ACP        -0.4916
     28 N1         -4.1703    1.1517   -3.1536 N.pl3     1 ACP        -0.4390
     29 C2         -2.8174    0.7994   -3.5215 C.ar      1 ACP         0.5691
     30 N3         -2.0475    0.0097   -2.8393 N.ar      1 ACP        -0.4283
     31 C4         -2.6278   -0.4836   -1.7071 C.ar      1 ACP         0.2226
     32 HOG3        4.0521   -8.7884   -1.1084 H         1 ACP         0.2010
     33 H3B1        3.7405   -5.2930    1.6347 H         1 ACP        -0.0393
     34 H3B2        4.7633   -6.7196    1.8275 H         1 ACP        -0.0393
     35 H5'1       -1.7614   -3.4427    2.4167 H         1 ACP        -0.0393
     36 H5'2       -0.1870   -3.8723    3.1344 H         1 ACP        -0.0393
     37 H4'         0.8883   -3.6447    0.8783 H         1 ACP        -0.0393
     38 H3'        -0.7368   -1.2359    1.9871 H         1 ACP        -0.0393
     39 HO3'        1.1625   -1.9325    3.0084 H         1 ACP         0.2010
     40 H2'        -0.0343   -0.0280    0.0196 H         1 ACP        -0.0393
     41 HO2'        2.1443   -0.7955    0.0378 H         1 ACP         0.2010
     42 H1'        -0.5175   -2.1046   -1.7826 H         1 ACP        -0.0393
     43 H8         -3.2310   -2.1319    1.1889 H         1 ACP         0.0000
     44 HN61       -6.3230    0.5316   -0.7829 H         1 ACP         0.2048
     45 HN62       -6.5628    1.5584   -2.1760 H         1 ACP         0.2048
     46 H2         -2.4822    1.2710   -4.4579 H         1 ACP        -0.1292
     47 H47        -4.7200    1.7780   -3.7346 H         1 ACP         0.2048
@<TRIPOS>BOND
     1    1    2 2
     2    1    3 1
     3    1    4 1
     4    1    8 1
     5    4   32 1
     6    5    6 2
     7    5    7 1
     8    5    8 1
     9    5   12 1
    10    8   33 1
    11    8   34 1
    12    9   10 2
    13    9   11 1
    14    9   12 1
    15    9   13 1
    16   13   14 1
    17   14   15 1
    18   14   35 1
    19   14   36 1
    20   15   16 1
    21   15   17 1
    22   15   37 1
    23   16   21 1
    24   17   18 1
    25   17   19 1
    26   17   38 1
    27   18   39 1
    28   19   20 1
    29   19   21 1
    30   19   40 1
    31   20   41 1
    32   21   22 1
    33   21   42 1
    34   22   23 ar
    35   22   31 ar
    36   23   24 ar
    37   23   43 1
    38   24   25 ar
    39   25   26 ar
    40   25   31 ar
    41   26   27 1
    42   26   28 ar
    43   27   44 1
    44   27   45 1
    45   28   29 ar
    46   28   47 1
    47   29   30 ar
    48   29   46 1
    49   30   31 ar
@<TRIPOS>SUBSTRUCTURE
     1 ACP         1 GROUP 0 A     ****
@<TRIPOS>MOLECULE
[[5-(6-amino-1,8-dihydropurine-6,8-diylium-7-id-9-yl)-3,4-dihydroxy-tetrahydrofuran-2-yl]methoxy-oxido-phosphoryl]oxy-[[hydroxy(oxido)phosphoryl]methyl]phosphinate
   47    49     1     0     0
SMALL
USER_CHARGES

@<TRIPOS>ATOM
      1 PG          2.1988   -4.7529   -3.4704 P.3       1 ACP        -1.2804
      2 O1G         2.3523   -3.7019   -2.3959 O.co2     1 ACP         0.3195
      3 O2G         2.3855   -6.2256   -3.1865 O.co2     1 ACP         0.3195
      4 O3G         0.7838   -4.5284   -4.2498 O.3       1 ACP         0.0326
      5 PB          3.2293   -2.7193   -5.7894 P.3       1 ACP        -1.2804
      6 O1B         1.8608   -2.6650   -6.4274 O.co2     1 ACP         0.3195
      7 O2B         4.4994   -2.5848   -6.5976 O.co2     1 ACP         0.3195
      8 C3B         3.3397   -4.3087   -4.8536 C.3       1 ACP         0.8942
      9 PA          3.0653   -0.0868   -4.4294 P.3       1 ACP        -1.1062
     10 O1A         1.6188    0.2173   -4.7536 O.co2     1 ACP         0.3195
     11 O2A         4.1847    0.5906   -5.1901 O.co2     1 ACP         0.3195
     12 O3A         3.2848   -1.7027   -4.5160 O.3       1 ACP         0.4672
     13 O5'         3.2883    0.1336   -2.8242 O.3       1 ACP         0.1618
     14 C5'         2.2816   -0.2918   -1.9206 C.3       1 ACP         0.1504
     15 C4'         2.7248    0.0226   -0.4980 C.3       1 ACP         0.1111
     16 O4'         2.4697    1.4219   -0.2462 O.3       1 ACP        -0.1436
     17 C3'         1.9404   -0.7419    0.5596 C.3       1 ACP         0.1111
     18 O3'         2.7418   -0.8086    1.7389 O.3       1 ACP        -0.2728
     19 C2'         0.7477    0.1630    0.7858 C.3       1 ACP         0.1111
     20 O2'         0.1373   -0.0577    2.0407 O.3       1 ACP        -0.2728
     21 C1'         1.3733    1.5427    0.6747 C.3       1 ACP         0.2693
     22 N9          0.4520    2.5240    0.1767 N.pl3     1 ACP        -0.3222
     23 C8         -0.7463    2.2774   -0.7501 C.ar      1 ACP         0.1640
     24 N7         -1.3714    3.4419   -0.9948 N.2       1 ACP        -0.1640
     25 C5         -0.6104    4.3223   -0.2723 C.ar      1 ACP         0.0820
     26 C6         -0.9062    5.7820   -0.2194 C.ar      1 ACP         0.1640
     27 N6         -1.9385    6.2713   -0.8881 N.pl3     1 ACP        -0.4916
     28 N1         -0.0613    6.4906    0.5336 N.pl3     1 ACP        -0.4390
     29 C2          1.0416    5.8662    1.2291 C.ar      1 ACP         0.5691
     30 N3          1.3146    4.5989    1.1954 N.ar      1 ACP        -0.4283
     31 C4          0.4541    3.8697    0.4273 C.ar      1 ACP         0.2226
     32 HOG3       -0.0480   -4.5752   -3.7320 H         1 ACP         0.2010
     33 H3B1        3.2469   -5.1120   -5.5930 H         1 ACP        -0.0393
     34 H3B2        4.3563   -4.3533   -4.4476 H         1 ACP        -0.0393
     35 H5'1        1.3500    0.2325   -2.1560 H         1 ACP        -0.0393
     36 H5'2        2.1267   -1.3683   -2.0444 H         1 ACP        -0.0393
     37 H4'         3.8046   -0.1390   -0.4011 H         1 ACP        -0.0393
     38 H3'         1.6787   -1.7627    0.2719 H         1 ACP        -0.0393
     39 HO3'        2.2231   -1.2979    2.3952 H         1 ACP         0.2010
     40 H2'         0.0002   -0.0084   -0.0014 H         1 ACP        -0.0393
     41 HO2'       -0.6132    0.5577    2.1063 H         1 ACP         0.2010
     42 H1'         1.7718    1.9211    1.6015 H         1 ACP        -0.0393
     43 H8         -1.1244    1.3534   -1.1987 H         1 ACP         0.0000
     44 HN61       -2.5259    5.6573   -1.4336 H         1 ACP         0.2048
     45 HN62       -2.1416    7.2600   -0.8539 H         1 ACP         0.2048
     46 H2          1.6509    6.5764    1.8088 H         1 ACP        -0.1292
     47 H47        -0.2190    7.4917    0.6033 H         1 ACP         0.2048
@<TRIPOS>BOND
     1    1    2 2
     2    1    3 1
     3    1    4 1
     4    1    8 1
     5    4   32 1
     6    5    6 2
     7    5    7 1
     8    5    8 1
     9    5   12 1
    10    8   33 1
    11    8   34 1
    12    9   10 2
    13    9   11 1
    14    9   12 1
    15    9   13 1
    16   13   14 1
    17   14   15 1
    18   14   35 1
    19   14   36 1
    20   15   16 1
    21   15   17 1
    22   15   37 1
    23   16   21 1
    24   17   18 1
    25   17   19 1
    26   17   38 1
    27   18   39 1
    28   19   20 1
    29   19   21 1
    30   19   40 1
    31   20   41 1
    32   21   22 1
    33   21   42 1
    34   22   23 ar
    35   22   31 ar
    36   23   24 ar
    37   23   43 1
    38   24   25 ar
    39   25   26 ar
    40   25   31 ar
    41   26   27 1
    42   26   28 ar
    43   27   44 1
    44   27   45 1
    45   28   29 ar
    46   28   47 1
    47   29   30 ar
    48   29   46 1
    49   30   31 ar
@<TRIPOS>SUBSTRUCTURE
     1 ACP         1 GROUP 0 A     ****
@<TRIPOS>MOLECULE
[[5-(6-amino-1,8-dihydropurine-6,8-diylium-7-id-9-yl)-3,4-dihydroxy-tetrahydrofuran-2-yl]methoxy-oxido-phosphoryl]oxy-[[hydroxy(oxido)phosphoryl]methyl]phosphinate
   47    49     1     0     0
SMALL
USER_CHARGES

@<TRIPOS>ATOM
      1 PG          0.2616   -4.5300    6.6642 P.3       1 ACP        -1.2804
      2 O1G         1.3865   -4.3388    5.6739 O.co2     1 ACP         0.3195
      3 O2G         0.4670   -4.3744    8.1534 O.co2     1 ACP         0.3195
      4 O3G        -1.0252   -3.6416    6.2008 O.3       1 ACP         0.0326
      5 PB         -1.2038   -6.7322    4.7725 P.3       1 ACP        -1.2804
      6 O1B        -2.3585   -5.8005    4.4875 O.co2     1 ACP         0.3195
      7 O2B        -1.3753   -8.2329    4.8251 O.co2     1 ACP         0.3195
      8 C3B        -0.4551   -6.2084    6.3785 C.3       1 ACP         0.8942
      9 PA          0.1815   -6.3463    2.1767 P.3       1 ACP        -1.1062
     10 O1A        -0.2700   -7.6906    1.6488 O.co2     1 ACP         0.3195
     11 O2A         1.5393   -5.7893    1.8067 O.co2     1 ACP         0.3195
     12 O3A         0.0550   -6.3623    3.8048 O.3       1 ACP         0.4672
     13 O5'        -0.9728   -5.2427    1.8237 O.3       1 ACP         0.1618
     14 C5'        -0.7840   -3.8935    2.2172 C.3       1 ACP         0.1504
     15 C4'        -0.0724   -3.1466    1.1027 C.3       1 ACP         0.1111
     16 O4'        -0.8674   -3.1929   -0.0945 O.3       1 ACP        -0.1436
     17 C3'         0.1338   -1.6715    1.4027 C.3       1 ACP         0.1111
     18 O3'         1.2893   -1.4445    2.1808 O.3       1 ACP        -0.2728
     19 C2'         0.2158   -1.0724    0.0128 C.3       1 ACP         0.1111
     20 O2'         1.5141   -1.2448   -0.5513 O.3       1 ACP        -0.2728
     21 C1'        -0.7897   -1.9176   -0.7583 C.3       1 ACP         0.2693
     22 N9         -2.1040   -1.3333   -0.7704 N.pl3     1 ACP        -0.3222
     23 C8         -3.2124   -1.5345    0.2719 C.ar      1 ACP         0.1640
     24 N7         -4.2964   -0.8234   -0.0828 N.2       1 ACP        -0.1640
     25 C5         -3.8754   -0.2386   -1.2478 C.ar      1 ACP         0.0820
     26 C6         -4.7432    0.6719   -2.0470 C.ar      1 ACP         0.1640
     27 N6         -5.9725    0.9415   -1.6366 N.pl3     1 ACP        -0.4916
     28 N1         -4.1703    1.1517   -3.1536 N.pl3     1 ACP        -0.4390
     29 C2         -2.8174    0.7994   -3.5215 C.ar      1 ACP         0.5691
     30 N3         -2.0475    0.0097   -2.8393 N.ar      1 ACP        -0.4283
     31 C4         -2.6278   -0.4836   -1.7071 C.ar      1 ACP         0.2226
     32 HOG3       -0.9196   -2.6693    6.1253 H         1 ACP         0.2010
     33 H3B1       -1.2307   -6.3407    7.1410 H         1 ACP        -0.0393
     34 H3B2        0.3413   -6.9297    6.5930 H         1 ACP        -0.0393
     35 H5'1       -1.7614   -3.4427    2.4167 H         1 ACP        -0.0393
     36 H5'2       -0.1870   -3.8723    3.1344 H         1 ACP        -0.0393
     37 H4'         0.8883   -3.6447    0.8783 H         1 ACP        -0.0393
     38 H3'        -0.7368   -1.2359    1.9871 H         1 ACP        -0.0393
     39 HO3'        1.1625   -1.9325    3.0084 H         1 ACP         0.2010
     40 H2'        -0.0343   -0.0280    0.0196 H         1 ACP        -0.0393
     41 HO2'        2.1443   -0.7955    0.0378 H         1 ACP         0.2010
     42 H1'        -0.5175   -2.1046   -1.7826 H         1 ACP        -0.0393
     43 H8         -3.2310   -2.1319    1.1889 H         1 ACP         0.0000
     44 HN61       -6.3230    0.5316   -0.7829 H         1 ACP         0.2048
     45 HN62       -6.5628    1.5584   -2.1760 H         1 ACP         0.2048
     46 H2         -2.4822    1.2710   -4.4579 H         1 ACP        -0.1292
     47 H47        -4.7200    1.7780   -3.7346 H         1 ACP         0.2048
@<TRIPOS>BOND
     1    1    2 2
     2    1    3 1
     3    1    4 1
     4    1    8 1
     5    4   32 1
     6    5    6 2
     7    5    7 1
     8    5    8 1
     9    5   12 1
    10    8   33 1
    11    8   34 1
    12    9   10 2
    13    9   11 1
    14    9   12 1
    15    9   13 1
    16   13   14 1
    17   14   15 1
    18   14   35 1
    19   14   36 1
    20   15   16 1
    21   15   17 1
    22   15   37 1
    23   16   21 1
    24   17   18 1
    25   17   19 1
    26   17   38 1
    27   18   39 1
    28   19   20 1
    29   19   21 1
    30   19   40 1
    31   20   41 1
    32   21   22 1
    33   21   42 1
    34   22   23 ar
    35   22   31 ar
    36   23   24 ar
    37   23   43 1
    38   24   25 ar
    39   25   26 ar
    40   25   31 ar
    41   26   27 1
    42   26   28 ar
    43   27   44 1
    44   27   45 1
    45   28   29 ar
    46   28   47 1
    47   29   30 ar
    48   29   46 1
    49   30   31 ar
@<TRIPOS>SUBSTRUCTURE
     1 ACP         1 GROUP 0 A     ****
@<TRIPOS>MOLECULE
[[5-(6-amino-1,8-dihydropurine-6,8-diylium-7-id-9-yl)-3,4-dihydroxy-tetrahydrofuran-2-yl]methoxy-oxido-phosphoryl]oxy-[[hydroxy(oxido)phosphoryl]methyl]phosphinate
   47    49     1     0     0
SMALL
USER_CHARGES

@<TRIPOS>ATOM
      1 PG          6.2712   -2.5261   -4.7346 P.3       1 ACP        -1.2804
      2 O1G         6.3055   -4.0214   -4.9482 O.co2     1 ACP         0.3195
      3 O2G         5.9909   -1.9140   -3.3815 O.co2     1 ACP         0.3195
      4 O3G         7.6212   -1.8583   -5.3603 O.3       1 ACP         0.0326
      5 PB          3.2607   -2.2915   -5.9419 P.3       1 ACP        -1.2804
      6 O1B         3.1890   -3.7783   -6.2006 O.co2     1 ACP         0.3195
      7 O2B         2.5397   -1.2879   -6.8121 O.co2     1 ACP         0.3195
      8 C3B         5.0471   -1.8197   -5.9241 C.3       1 ACP         0.8942
      9 PA          1.5993   -2.3027   -3.4829 P.3       1 ACP        -1.1062
     10 O1A         1.4644   -3.8029   -3.3383 O.co2     1 ACP         0.3195
     11 O2A         0.4539   -1.4742   -4.0233 O.co2     1 ACP         0.3195
     12 O3A         2.9310   -1.9881   -4.3743 O.3       1 ACP         0.4672
     13 O5'         2.0818   -1.6902   -2.0452 O.3       1 ACP         0.1618
     14 C5'         2.2816   -0.2918   -1.9206 C.3       1 ACP         0.1504
     15 C4'         2.7248    0.0226   -0.4980 C.3       1 ACP         0.1111
     16 O4'         2.4697    1.4219   -0.2462 O.3       1 ACP        -0.1436
     17 C3'         1.9404   -0.7419    0.5596 C.3       1 ACP         0.1111
     18 O3'         2.7418   -0.8086    1.7389 O.3       1 ACP        -0.2728
     19 C2'         0.7477    0.1630    0.7858 C.3       1 ACP         0.1111
     20 O2'         0.1373   -0.0577    2.0407 O.3       1 ACP        -0.2728
     21 C1'         1.3733    1.5427    0.6747 C.3       1 ACP         0.2693
     22 N9          0.4520    2.5240    0.1767 N.pl3     1 ACP        -0.3222
     23 C8          0.5793    3.3338   -1.1209 C.ar      1 ACP         0.1640
     24 N7         -0.4807    4.1508   -1.2458 N.2       1 ACP        -0.1640
     25 C5         -1.1921    3.8572   -0.1126 C.ar      1 ACP         0.0820
     26 C6         -2.4855    4.5203    0.2163 C.ar      1 ACP         0.1640
     27 N6         -2.9873    5.4319   -0.6020 N.pl3     1 ACP        -0.4916
     28 N1         -3.0414    4.1119    1.3596 N.pl3     1 ACP        -0.4390
     29 C2         -2.4169    3.1071    2.1904 C.ar      1 ACP         0.5691
     30 N3         -1.2928    2.5191    1.9210 N.ar      1 ACP        -0.4283
     31 C4         -0.7202    2.9326    0.7534 C.ar      1 ACP         0.2226
     32 HOG3        8.4908   -2.1426   -5.0067 H         1 ACP         0.2010
     33 H3B1        5.4363   -2.0376   -6.9249 H         1 ACP        -0.0393
     34 H3B2        5.0738   -0.7323   -5.7920 H         1 ACP        -0.0393
     35 H5'1        3.0467    0.0218   -2.6379 H         1 ACP        -0.0393
     36 H5'2        1.3432    0.2220   -2.1518 H         1 ACP        -0.0393
     37 H4'         3.8046   -0.1390   -0.4011 H         1 ACP        -0.0393
     38 H3'         1.6787   -1.7627    0.2719 H         1 ACP        -0.0393
     39 HO3'        2.2231   -1.2979    2.3952 H         1 ACP         0.2010
     40 H2'         0.0002   -0.0084   -0.0014 H         1 ACP        -0.0393
     41 HO2'       -0.1554   -0.9852    2.0577 H         1 ACP         0.2010
     42 H1'         1.7718    1.9211    1.6015 H         1 ACP        -0.0393
     43 H8          1.3565    3.3309   -1.8916 H         1 ACP         0.0000
     44 HN61       -2.4952    5.6785   -1.4487 H         1 ACP         0.2048
     45 HN62       -3.8637    5.8828   -0.3819 H         1 ACP         0.2048
     46 H2         -2.9911    2.8734    3.1000 H         1 ACP        -0.1292
     47 H47        -3.9253    4.5332    1.6302 H         1 ACP         0.2048
@<TRIPOS>BOND
     1    1    2 2
     2    1    3 1
     3    1    4 1
     4    1    8 1
     5    4   32 1
     6    5    6 2
     7    5    7 1
     8    5    8 1
     9    5   12 1
    10    8   33 1
    11    8   34 1
    12    9   10 2
    13    9   11 1
    14    9   12 1
    15    9   13 1
    16   13   14 1
    17   14   15 1
    18   14   35 1
    19   14   36 1
    20   15   16 1
    21   15   17 1
    22   15   37 1
    23   16   21 1
    24   17   18 1
    25   17   19 1
    26   17   38 1
    27   18   39 1
    28   19   20 1
    29   19   21 1
    30   19   40 1
    31   20   41 1
    32   21   22 1
    33   21   42 1
    34   22   23 ar
    35   22   31 ar
    36   23   24 ar
    37   23   43 1
    38   24   25 ar
    39   25   26 ar
    40   25   31 ar
    41   26   27 1
    42   26   28 ar
    43   27   44 1
    44   27   45 1
    45   28   29 ar
    46   28   47 1
    47   29   30 ar
    48   29   46 1
    49   30   31 ar
@<TRIPOS>SUBSTRUCTURE
     1 ACP         1 GROUP 0 A     ****
@<TRIPOS>MOLECULE
[[5-(6-amino-1,8-dihydropurine-6,8-diylium-7-id-9-yl)-3,4-dihydroxy-tetrahydrofuran-2-yl]methoxy-oxido-phosphoryl]oxy-[[hydroxy(oxido)phosphoryl]methyl]phosphinate
   47    49     1     0     0
SMALL
USER_CHARGES

@<TRIPOS>ATOM
      1 PG         -2.4038   -2.4691   -3.1777 P.3       1 ACP        -1.2804
      2 O1G        -3.6852   -2.9285   -3.8333 O.co2     1 ACP         0.3195
      3 O2G        -1.6895   -1.2079   -3.6059 O.co2     1 ACP         0.3195
      4 O3G        -2.5978   -2.4566   -1.5584 O.3       1 ACP         0.0326
      5 PB          0.5294   -3.7580   -2.6204 P.3       1 ACP        -1.2804
      6 O1B         1.2021   -5.0803   -2.9063 O.co2     1 ACP         0.3195
      7 O2B         0.4345   -3.1893   -1.2233 O.co2     1 ACP         0.3195
      8 C3B        -1.1895   -3.8565   -3.2911 C.3       1 ACP         0.8942
      9 PA          2.6179   -2.0499   -3.8561 P.3       1 ACP        -1.1062
     10 O1A         2.5535   -0.8721   -4.8040 O.co2     1 ACP         0.3195
     11 O2A         3.5312   -3.2219   -4.1438 O.co2     1 ACP         0.3195
     12 O3A         1.1027   -2.6171   -3.6342 O.3       1 ACP         0.4672
     13 O5'         2.9202   -1.4821   -2.3524 O.3       1 ACP         0.1618
     14 C5'         2.2816   -0.2918   -1.9206 C.3       1 ACP         0.1504
     15 C4'         2.7248    0.0226   -0.4980 C.3       1 ACP         0.1111
     16 O4'         2.4697    1.4219   -0.2462 O.3       1 ACP        -0.1436
     17 C3'         1.9404   -0.7419    0.5596 C.3       1 ACP         0.1111
     18 O3'         2.7418   -0.8086    1.7389 O.3       1 ACP        -0.2728
     19 C2'         0.7477    0.1630    0.7858 C.3       1 ACP         0.1111
     20 O2'         0.1373   -0.0577    2.0407 O.3       1 ACP        -0.2728
     21 C1'         1.3733    1.5427    0.6747 C.3       1 ACP         0.2693
     22 N9          0.4520    2.5240    0.1767 N.pl3     1 ACP        -0.3222
     23 C8         -0.7463    2.2774   -0.7501 C.ar      1 ACP         0.1640
     24 N7         -1.3714    3.4419   -0.9948 N.2       1 ACP        -0.1640
     25 C5         -0.6104    4.3223   -0.2723 C.ar      1 ACP         0.0820
     26 C6         -0.9062    5.7820   -0.2194 C.ar      1 ACP         0.1640
     27 N6         -1.9385    6.2713   -0.8881 N.pl3     1 ACP        -0.4916
     28 N1         -0.0613    6.4906    0.5336 N.pl3     1 ACP        -0.4390
     29 C2          1.0416    5.8662    1.2291 C.ar      1 ACP         0.5691
     30 N3          1.3146    4.5989    1.1954 N.ar      1 ACP        -0.4283
     31 C4          0.4541    3.8697    0.4273 C.ar      1 ACP         0.2226
     32 HOG3       -3.2955   -1.8833   -1.1753 H         1 ACP         0.2010
     33 H3B1       -1.0943   -4.0898   -4.3574 H         1 ACP        -0.0393
     34 H3B2       -1.6563   -4.7215   -2.8071 H         1 ACP        -0.0393
     35 H5'1        2.5581    0.5235   -2.5966 H         1 ACP        -0.0393
     36 H5'2        1.1974   -0.4370   -1.9607 H         1 ACP        -0.0393
     37 H4'         3.8046   -0.1390   -0.4011 H         1 ACP        -0.0393
     38 H3'         1.6787   -1.7627    0.2719 H         1 ACP        -0.0393
     39 HO3'        2.2231   -1.2979    2.3952 H         1 ACP         0.2010
     40 H2'         0.0002   -0.0084   -0.0014 H         1 ACP        -0.0393
     41 HO2'       -0.6132    0.5577    2.1063 H         1 ACP         0.2010
     42 H1'         1.7718    1.9211    1.6015 H         1 ACP        -0.0393
     43 H8         -1.1244    1.3534   -1.1987 H         1 ACP         0.0000
     44 HN61       -2.5259    5.6573   -1.4336 H         1 ACP         0.2048
     45 HN62       -2.1416    7.2600   -0.8539 H         1 ACP         0.2048
     46 H2          1.6509    6.5764    1.8088 H         1 ACP        -0.1292
     47 H47        -0.2190    7.4917    0.6033 H         1 ACP         0.2048
@<TRIPOS>BOND
     1    1    2 2
     2    1    3 1
     3    1    4 1
     4    1    8 1
     5    4   32 1
     6    5    6 2
     7    5    7 1
     8    5    8 1
     9    5   12 1
    10    8   33 1
    11    8   34 1
    12    9   10 2
    13    9   11 1
    14    9   12 1
    15    9   13 1
    16   13   14 1
    17   14   15 1
    18   14   35 1
    19   14   36 1
    20   15   16 1
    21   15   17 1
    22   15   37 1
    23   16   21 1
    24   17   18 1
    25   17   19 1
    26   17   38 1
    27   18   39 1
    28   19   20 1
    29   19   21 1
    30   19   40 1
    31   20   41 1
    32   21   22 1
    33   21   42 1
    34   22   23 ar
    35   22   31 ar
    36   23   24 ar
    37   23   43 1
    38   24   25 ar
    39   25   26 ar
    40   25   31 ar
    41   26   27 1
    42   26   28 ar
    43   27   44 1
    44   27   45 1
    45   28   29 ar
    46   28   47 1
    47   29   30 ar
    48   29   46 1
    49   30   31 ar
@<TRIPOS>SUBSTRUCTURE
     1 ACP         1 GROUP 0 A     ****
@<TRIPOS>MOLECULE
[[5-(6-amino-1,8-dihydropurine-6,8-diylium-7-id-9-yl)-3,4-dihydroxy-tetrahydrofuran-2-yl]methoxy-oxido-phosphoryl]oxy-[[hydroxy(oxido)phosphoryl]methyl]phosphinate
   47    49     1     0     0
SMALL
USER_CHARGES

@<TRIPOS>ATOM
      1 PG          4.3417   -5.0192    1.0827 P.3       1 ACP        -1.2804
      2 O1G         5.3898   -4.9659    2.1697 O.co2     1 ACP         0.3195
      3 O2G         3.3143   -3.9255    0.9029 O.co2     1 ACP         0.3195
      4 O3G         5.0608   -5.3252   -0.3488 O.3       1 ACP         0.0326
      5 PB          2.4865   -7.0718    2.7916 P.3       1 ACP        -1.2804
      6 O1B         3.4699   -7.0933    3.9384 O.co2     1 ACP         0.3195
      7 O2B         1.6269   -8.2661    2.4465 O.co2     1 ACP         0.3195
      8 C3B         3.4251   -6.6122    1.2678 C.3       1 ACP         0.8942
      9 PA          0.5333   -5.2357    4.0646 P.3       1 ACP        -1.1062
     10 O1A         1.3496   -4.8932    5.2918 O.co2     1 ACP         0.3195
     11 O2A        -0.6180   -6.2140    4.1530 O.co2     1 ACP         0.3195
     12 O3A         1.5517   -5.7398    2.8917 O.3       1 ACP         0.4672
     13 O5'         0.0099   -3.8403    3.3910 O.3       1 ACP         0.1618
     14 C5'        -0.7840   -3.8935    2.2172 C.3       1 ACP         0.1504
     15 C4'        -0.0724   -3.1466    1.1027 C.3       1 ACP         0.1111
     16 O4'        -0.8674   -3.1929   -0.0945 O.3       1 ACP        -0.1436
     17 C3'         0.1338   -1.6715    1.4027 C.3       1 ACP         0.1111
     18 O3'         1.2893   -1.4445    2.1808 O.3       1 ACP        -0.2728
     19 C2'         0.2158   -1.0724    0.0128 C.3       1 ACP         0.1111
     20 O2'         1.5141   -1.2448   -0.5513 O.3       1 ACP        -0.2728
     21 C1'        -0.7897   -1.9176   -0.7583 C.3       1 ACP         0.2693
     22 N9         -2.1040   -1.3333   -0.7704 N.pl3     1 ACP        -0.3222
     23 C8         -3.2124   -1.5345    0.2719 C.ar      1 ACP         0.1640
     24 N7         -4.2964   -0.8234   -0.0828 N.2       1 ACP        -0.1640
     25 C5         -3.8754   -0.2386   -1.2478 C.ar      1 ACP         0.0820
     26 C6         -4.7432    0.6719   -2.0470 C.ar      1 ACP         0.1640
     27 N6         -5.9725    0.9415   -1.6366 N.pl3     1 ACP        -0.4916
     28 N1         -4.1703    1.1517   -3.1536 N.pl3     1 ACP        -0.4390
     29 C2         -2.8174    0.7994   -3.5215 C.ar      1 ACP         0.5691
     30 N3         -2.0475    0.0097   -2.8393 N.ar      1 ACP        -0.4283
     31 C4         -2.6278   -0.4836   -1.7071 C.ar      1 ACP         0.2226
     32 HOG3        5.7334   -4.6922   -0.6792 H         1 ACP         0.2010
     33 H3B1        4.1620   -7.4066    1.1050 H         1 ACP        -0.0393
     34 H3B2        2.7066   -6.6579    0.4419 H         1 ACP        -0.0393
     35 H5'1       -0.9358   -4.9414    1.9395 H         1 ACP        -0.0393
     36 H5'2       -1.7558   -3.4349    2.4258 H         1 ACP        -0.0393
     37 H4'         0.8883   -3.6447    0.8783 H         1 ACP        -0.0393
     38 H3'        -0.7368   -1.2359    1.9871 H         1 ACP        -0.0393
     39 HO3'        1.1625   -1.9325    3.0084 H         1 ACP         0.2010
     40 H2'        -0.0343   -0.0280    0.0196 H         1 ACP        -0.0393
     41 HO2'        2.1443   -0.7955    0.0378 H         1 ACP         0.2010
     42 H1'        -0.5175   -2.1046   -1.7826 H         1 ACP        -0.0393
     43 H8         -3.2310   -2.1319    1.1889 H         1 ACP         0.0000
     44 HN61       -6.3230    0.5316   -0.7829 H         1 ACP         0.2048
     45 HN62       -6.5628    1.5584   -2.1760 H         1 ACP         0.2048
     46 H2         -2.4822    1.2710   -4.4579 H         1 ACP        -0.1292
     47 H47        -4.7200    1.7780   -3.7346 H         1 ACP         0.2048
@<TRIPOS>BOND
     1    1    2 2
     2    1    3 1
     3    1    4 1
     4    1    8 1
     5    4   32 1
     6    5    6 2
     7    5    7 1
     8    5    8 1
     9    5   12 1
    10    8   33 1
    11    8   34 1
    12    9   10 2
    13    9   11 1
    14    9   12 1
    15    9   13 1
    16   13   14 1
    17   14   15 1
    18   14   35 1
    19   14   36 1
    20   15   16 1
    21   15   17 1
    22   15   37 1
    23   16   21 1
    24   17   18 1
    25   17   19 1
    26   17   38 1
    27   18   39 1
    28   19   20 1
    29   19   21 1
    30   19   40 1
    31   20   41 1
    32   21   22 1
    33   21   42 1
    34   22   23 ar
    35   22   31 ar
    36   23   24 ar
    37   23   43 1
    38   24   25 ar
    39   25   26 ar
    40   25   31 ar
    41   26   27 1
    42   26   28 ar
    43   27   44 1
    44   27   45 1
    45   28   29 ar
    46   28   47 1
    47   29   30 ar
    48   29   46 1
    49   30   31 ar
@<TRIPOS>SUBSTRUCTURE
     1 ACP         1 GROUP 0 A     ****
@<TRIPOS>MOLECULE
[[5-(6-amino-1,8-dihydropurine-6,8-diylium-7-id-9-yl)-3,4-dihydroxy-tetrahydrofuran-2-yl]methoxy-oxido-phosphoryl]oxy-[[hydroxy(oxido)phosphoryl]methyl]phosphinate
   47    49     1     0     0
SMALL
USER_CHARGES

@<TRIPOS>ATOM
      1 PG         -2.0816   -1.8469   -2.2952 P.3       1 ACP        -1.2804
      2 O1G        -3.5481   -1.9426   -2.6461 O.co2     1 ACP         0.3195
      3 O2G        -1.2149   -0.7031   -2.7694 O.co2     1 ACP         0.3195
      4 O3G        -1.8963   -2.0336   -0.6857 O.3       1 ACP         0.0326
      5 PB          0.5294   -3.7580   -2.6204 P.3       1 ACP        -1.2804
      6 O1B         0.8010   -5.1308   -3.1900 O.co2     1 ACP         0.3195
      7 O2B         0.8848   -3.3927   -1.1976 O.co2     1 ACP         0.3195
      8 C3B        -1.2728   -3.4152   -2.8415 C.3       1 ACP         0.8942
      9 PA          2.6179   -2.0499   -3.8561 P.3       1 ACP        -1.1062
     10 O1A         2.5535   -0.8721   -4.8040 O.co2     1 ACP         0.3195
     11 O2A         3.5312   -3.2219   -4.1438 O.co2     1 ACP         0.3195
     12 O3A         1.1027   -2.6171   -3.6342 O.3       1 ACP         0.4672
     13 O5'         2.9202   -1.4821   -2.3524 O.3       1 ACP         0.1618
     14 C5'         2.2816   -0.2918   -1.9206 C.3       1 ACP         0.1504
     15 C4'         2.7248    0.0226   -0.4980 C.3       1 ACP         0.1111
     16 O4'         2.4697    1.4219   -0.2462 O.3       1 ACP        -0.1436
     17 C3'         1.9404   -0.7419    0.5596 C.3       1 ACP         0.1111
     18 O3'         2.7418   -0.8086    1.7389 O.3       1 ACP        -0.2728
     19 C2'         0.7477    0.1630    0.7858 C.3       1 ACP         0.1111
     20 O2'         0.1373   -0.0577    2.0407 O.3       1 ACP        -0.2728
     21 C1'         1.3733    1.5427    0.6747 C.3       1 ACP         0.2693
     22 N9          0.4520    2.5240    0.1767 N.pl3     1 ACP        -0.3222
     23 C8         -0.4598    3.4379    1.0068 C.ar      1 ACP         0.1640
     24 N7         -1.1770    4.2228    0.1845 N.2       1 ACP        -0.1640
     25 C5         -0.7330    3.8149   -1.0455 C.ar      1 ACP         0.0820
     26 C6         -1.2413    4.4029   -2.3169 C.ar      1 ACP         0.1640
     27 N6         -2.1578    5.3575   -2.2831 N.pl3     1 ACP        -0.4916
     28 N1         -0.6977    3.8860   -3.4216 N.pl3     1 ACP        -0.4390
     29 C2          0.3002    2.8419   -3.3591 C.ar      1 ACP         0.5691
     30 N3          0.7548    2.3183   -2.2631 N.ar      1 ACP        -0.4283
     31 C4          0.2027    2.8430   -1.1309 C.ar      1 ACP         0.2226
     32 HOG3       -2.3400   -1.3960   -0.0866 H         1 ACP         0.2010
     33 H3B1       -1.4768   -3.5039   -3.9143 H         1 ACP        -0.0393
     34 H3B2       -1.8023   -4.2322   -2.3389 H         1 ACP        -0.0393
     35 H5'1        2.5581    0.5235   -2.5966 H         1 ACP        -0.0393
     36 H5'2        1.1974   -0.4370   -1.9607 H         1 ACP        -0.0393
     37 H4'         3.8046   -0.1390   -0.4011 H         1 ACP        -0.0393
     38 H3'         1.6787   -1.7627    0.2719 H         1 ACP        -0.0393
     39 HO3'        2.2231   -1.2979    2.3952 H         1 ACP         0.2010
     40 H2'         0.0002   -0.0084   -0.0014 H         1 ACP        -0.0393
     41 HO2'       -0.6132    0.5577    2.1063 H         1 ACP         0.2010
     42 H1'         1.7718    1.9211    1.6015 H         1 ACP        -0.0393
     43 H8         -0.5892    3.5248    2.0902 H         1 ACP         0.0000
     44 HN61       -2.5128    5.6880   -1.3974 H         1 ACP         0.2048
     45 HN62       -2.5040    5.7581   -3.1431 H         1 ACP         0.2048
     46 H2          0.6550    2.5166   -4.3490 H         1 ACP        -0.1292
     47 H47        -1.0101    4.2527   -4.3160 H         1 ACP         0.2048
@<TRIPOS>BOND
     1    1    2 2
     2    1    3 1
     3    1    4 1
     4    1    8 1
     5    4   32 1
     6    5    6 2
     7    5    7 1
     8    5    8 1
     9    5   12 1
    10    8   33 1
    11    8   34 1
    12    9   10 2
    13    9   11 1
    14    9   12 1
    15    9   13 1
    16   13   14 1
    17   14   15 1
    18   14   35 1
    19   14   36 1
    20   15   16 1
    21   15   17 1
    22   15   37 1
    23   16   21 1
    24   17   18 1
    25   17   19 1
    26   17   38 1
    27   18   39 1
    28   19   20 1
    29   19   21 1
    30   19   40 1
    31   20   41 1
    32   21   22 1
    33   21   42 1
    34   22   23 ar
    35   22   31 ar
    36   23   24 ar
    37   23   43 1
    38   24   25 ar
    39   25   26 ar
    40   25   31 ar
    41   26   27 1
    42   26   28 ar
    43   27   44 1
    44   27   45 1
    45   28   29 ar
    46   28   47 1
    47   29   30 ar
    48   29   46 1
    49   30   31 ar
@<TRIPOS>SUBSTRUCTURE
     1 ACP         1 GROUP 0 A     ****
@<TRIPOS>MOLECULE
[[5-(6-amino-1,8-dihydropurine-6,8-diylium-7-id-9-yl)-3,4-dihydroxy-tetrahydrofuran-2-yl]methoxy-oxido-phosphoryl]oxy-[[hydroxy(oxido)phosphoryl]methyl]phosphinate
   47    49     1     0     0
SMALL
USER_CHARGES

@<TRIPOS>ATOM
      1 PG         -3.3842   -8.1654    0.8859 P.3       1 ACP        -1.2804
      2 O1G        -2.6015   -9.3521    0.3739 O.co2     1 ACP         0.3195
      3 O2G        -3.2123   -6.7796    0.3078 O.co2     1 ACP         0.3195
      4 O3G        -4.9709   -8.5401    0.9279 O.3       1 ACP         0.0326
      5 PB         -3.8449   -6.7379    3.7712 P.3       1 ACP        -1.2804
      6 O1B        -3.3669   -6.9758    5.1846 O.co2     1 ACP         0.3195
      7 O2B        -5.3132   -6.6654    3.4202 O.co2     1 ACP         0.3195
      8 C3B        -3.0894   -8.0446    2.7055 C.3       1 ACP         0.8942
      9 PA         -3.0181   -3.8920    3.6167 P.3       1 ACP        -1.1062
     10 O1A        -2.2860   -3.8232    4.9392 O.co2     1 ACP         0.3195
     11 O2A        -4.4029   -3.2991    3.4704 O.co2     1 ACP         0.3195
     12 O3A        -3.0698   -5.4519    3.1361 O.3       1 ACP         0.4672
     13 O5'        -2.0403   -3.2809    2.4568 O.3       1 ACP         0.1618
     14 C5'        -0.7840   -3.8935    2.2172 C.3       1 ACP         0.1504
     15 C4'        -0.0724   -3.1466    1.1027 C.3       1 ACP         0.1111
     16 O4'        -0.8674   -3.1929   -0.0945 O.3       1 ACP        -0.1436
     17 C3'         0.1338   -1.6715    1.4027 C.3       1 ACP         0.1111
     18 O3'         1.2893   -1.4445    2.1808 O.3       1 ACP        -0.2728
     19 C2'         0.2158   -1.0724    0.0128 C.3       1 ACP         0.1111
     20 O2'         1.5141   -1.2448   -0.5513 O.3       1 ACP        -0.2728
     21 C1'        -0.7897   -1.9176   -0.7583 C.3       1 ACP         0.2693
     22 N9         -2.1040   -1.3333   -0.7704 N.pl3     1 ACP        -0.3222
     23 C8         -3.3877   -1.9383   -0.1859 C.ar      1 ACP         0.1640
     24 N7         -4.4144   -1.0952   -0.3898 N.2       1 ACP        -0.1640
     25 C5         -3.7988   -0.0622   -1.0459 C.ar      1 ACP         0.0820
     26 C6         -4.5350    1.1514   -1.4997 C.ar      1 ACP         0.1640
     27 N6         -5.8347    1.2592   -1.2722 N.pl3     1 ACP        -0.4916
     28 N1         -3.7771    2.0576   -2.1221 N.pl3     1 ACP        -0.4390
     29 C2         -2.3607    1.8514   -2.3252 C.ar      1 ACP         0.5691
     30 N3         -1.7031    0.8030   -1.9377 N.ar      1 ACP        -0.4283
     31 C4         -2.4728   -0.1265   -1.3008 C.ar      1 ACP         0.2226
     32 HOG3       -5.4146   -8.7910    0.0898 H         1 ACP         0.2010
     33 H3B1       -2.0044   -7.9601    2.8319 H         1 ACP        -0.0393
     34 H3B2       -3.3956   -9.0042    3.1367 H         1 ACP        -0.0393
     35 H5'1       -0.1929   -3.8610    3.1379 H         1 ACP        -0.0393
     36 H5'2       -0.9476   -4.9382    1.9344 H         1 ACP        -0.0393
     37 H4'         0.8883   -3.6447    0.8783 H         1 ACP        -0.0393
     38 H3'        -0.7368   -1.2359    1.9871 H         1 ACP        -0.0393
     39 HO3'        1.3407   -0.4871    2.3218 H         1 ACP         0.2010
     40 H2'        -0.0343   -0.0280    0.0196 H         1 ACP        -0.0393
     41 HO2'        2.1443   -0.7955    0.0378 H         1 ACP         0.2010
     42 H1'        -0.5175   -2.1046   -1.7826 H         1 ACP        -0.0393
     43 H8         -3.5590   -2.8873    0.3318 H         1 ACP         0.0000
     44 HN61       -6.3278    0.5206   -0.7915 H         1 ACP         0.2048
     45 HN62       -6.3361    2.0806   -1.5783 H         1 ACP         0.2048
     46 H2         -1.8692    2.6833   -2.8525 H         1 ACP        -0.1292
     47 H47        -4.2310    2.9046   -2.4517 H         1 ACP         0.2048
@<TRIPOS>BOND
     1    1    2 2
     2    1    3 1
     3    1    4 1
     4    1    8 1
     5    4   32 1
     6    5    6 2
     7    5    7 1
     8    5    8 1
     9    5   12 1
    10    8   33 1
    11    8   34 1
    12    9   10 2
    13    9   11 1
    14    9   12 1
    15    9   13 1
    16   13   14 1
    17   14   15 1
    18   14   35 1
    19   14   36 1
    20   15   16 1
    21   15   17 1
    22   15   37 1
    23   16   21 1
    24   17   18 1
    25   17   19 1
    26   17   38 1
    27   18   39 1
    28   19   20 1
    29   19   21 1
    30   19   40 1
    31   20   41 1
    32   21   22 1
    33   21   42 1
    34   22   23 ar
    35   22   31 ar
    36   23   24 ar
    37   23   43 1
    38   24   25 ar
    39   25   26 ar
    40   25   31 ar
    41   26   27 1
    42   26   28 ar
    43   27   44 1
    44   27   45 1
    45   28   29 ar
    46   28   47 1
    47   29   30 ar
    48   29   46 1
    49   30   31 ar
@<TRIPOS>SUBSTRUCTURE
     1 ACP         1 GROUP 0 A     ****
@<TRIPOS>MOLECULE
[[5-(6-amino-1,8-dihydropurine-6,8-diylium-7-id-9-yl)-3,4-dihydroxy-tetrahydrofuran-2-yl]methoxy-oxido-phosphoryl]oxy-[[hydroxy(oxido)phosphoryl]methyl]phosphinate
   47    49     1     0     0
SMALL
USER_CHARGES

@<TRIPOS>ATOM
      1 PG          2.1683   -4.2301   -4.3190 P.3       1 ACP        -1.2804
      2 O1G         0.8078   -3.7769   -3.8432 O.co2     1 ACP         0.3195
      3 O2G         3.3553   -4.3227   -3.3882 O.co2     1 ACP         0.3195
      4 O3G         2.0160   -5.6304   -5.1410 O.3       1 ACP         0.0326
      5 PB          2.8430   -1.3106   -5.5828 P.3       1 ACP        -1.2804
      6 O1B         1.5054   -0.7543   -5.1539 O.co2     1 ACP         0.3195
      7 O2B         3.5525   -0.8295   -6.8275 O.co2     1 ACP         0.3195
      8 C3B         2.6573   -3.1431   -5.7303 C.3       1 ACP         0.8942
      9 PA          4.4357   -0.0473   -3.4208 P.3       1 ACP        -1.1062
     10 O1A         5.0077    1.0009   -4.3502 O.co2     1 ACP         0.3195
     11 O2A         5.2684   -0.6124   -2.2904 O.co2     1 ACP         0.3195
     12 O3A         3.8786   -1.2888   -4.3238 O.3       1 ACP         0.4672
     13 O5'         3.0198    0.5138   -2.8245 O.3       1 ACP         0.1618
     14 C5'         2.2816   -0.2918   -1.9206 C.3       1 ACP         0.1504
     15 C4'         2.7248    0.0226   -0.4980 C.3       1 ACP         0.1111
     16 O4'         2.4697    1.4219   -0.2462 O.3       1 ACP        -0.1436
     17 C3'         1.9404   -0.7419    0.5596 C.3       1 ACP         0.1111
     18 O3'         2.7418   -0.8086    1.7389 O.3       1 ACP        -0.2728
     19 C2'         0.7477    0.1630    0.7858 C.3       1 ACP         0.1111
     20 O2'         0.1373   -0.0577    2.0407 O.3       1 ACP        -0.2728
     21 C1'         1.3733    1.5427    0.6747 C.3       1 ACP         0.2693
     22 N9          0.4520    2.5240    0.1767 N.pl3     1 ACP        -0.3222
     23 C8         -1.0660    2.5608    0.3999 C.ar      1 ACP         0.1640
     24 N7         -1.5852    3.6333   -0.2221 N.2       1 ACP        -0.1640
     25 C5         -0.4682    4.1996   -0.7771 C.ar      1 ACP         0.0820
     26 C6         -0.5216    5.4476   -1.5899 C.ar      1 ACP         0.1640
     27 N6         -1.6813    6.0510   -1.7982 N.pl3     1 ACP        -0.4916
     28 N1          0.6621    5.8575   -2.0523 N.pl3     1 ACP        -0.4390
     29 C2          1.8795    5.1301   -1.7717 C.ar      1 ACP         0.5691
     30 N3          1.9458    4.0434   -1.0670 N.ar      1 ACP        -0.4283
     31 C4          0.7388    3.6199   -0.5917 C.ar      1 ACP         0.2226
     32 HOG3        1.6410   -6.4079   -4.6751 H         1 ACP         0.2010
     33 H3B1        1.9168   -3.3181   -6.5186 H         1 ACP        -0.0393
     34 H3B2        3.6196   -3.5184   -6.0958 H         1 ACP        -0.0393
     35 H5'1        1.2153   -0.0781   -2.0454 H         1 ACP        -0.0393
     36 H5'2        2.4645   -1.3454   -2.1547 H         1 ACP        -0.0393
     37 H4'         3.8046   -0.1390   -0.4011 H         1 ACP        -0.0393
     38 H3'         1.6787   -1.7627    0.2719 H         1 ACP        -0.0393
     39 HO3'        3.5553   -1.2733    1.4913 H         1 ACP         0.2010
     40 H2'         0.0002   -0.0084   -0.0014 H         1 ACP        -0.0393
     41 HO2'       -0.1554   -0.9852    2.0577 H         1 ACP         0.2010
     42 H1'         1.7718    1.9211    1.6015 H         1 ACP        -0.0393
     43 H8         -1.7235    1.8833    0.9537 H         1 ACP         0.0000
     44 HN61       -2.5296    5.6672   -1.4072 H         1 ACP         0.2048
     45 HN62       -1.7205    6.8969   -2.3483 H         1 ACP         0.2048
     46 H2          2.7750    5.5878   -2.2190 H         1 ACP        -0.1292
     47 H47         0.6808    6.7046   -2.6128 H         1 ACP         0.2048
@<TRIPOS>BOND
     1    1    2 2
     2    1    3 1
     3    1    4 1
     4    1    8 1
     5    4   32 1
     6    5    6 2
     7    5    7 1
     8    5    8 1
     9    5   12 1
    10    8   33 1
    11    8   34 1
    12    9   10 2
    13    9   11 1
    14    9   12 1
    15    9   13 1
    16   13   14 1
    17   14   15 1
    18   14   35 1
    19   14   36 1
    20   15   16 1
    21   15   17 1
    22   15   37 1
    23   16   21 1
    24   17   18 1
    25   17   19 1
    26   17   38 1
    27   18   39 1
    28   19   20 1
    29   19   21 1
    30   19   40 1
    31   20   41 1
    32   21   22 1
    33   21   42 1
    34   22   23 ar
    35   22   31 ar
    36   23   24 ar
    37   23   43 1
    38   24   25 ar
    39   25   26 ar
    40   25   31 ar
    41   26   27 1
    42   26   28 ar
    43   27   44 1
    44   27   45 1
    45   28   29 ar
    46   28   47 1
    47   29   30 ar
    48   29   46 1
    49   30   31 ar
@<TRIPOS>SUBSTRUCTURE
     1 ACP         1 GROUP 0 A     ****
@<TRIPOS>MOLECULE
[[5-(6-amino-1,8-dihydropurine-6,8-diylium-7-id-9-yl)-3,4-dihydroxy-tetrahydrofuran-2-yl]methoxy-oxido-phosphoryl]oxy-[[hydroxy(oxido)phosphoryl]methyl]phosphinate
   47    49     1     0     0
SMALL
USER_CHARGES

@<TRIPOS>ATOM
      1 PG         -3.7283   -4.3629    5.8806 P.3       1 ACP        -1.2804
      2 O1G        -2.4844   -3.8270    5.2111 O.co2     1 ACP         0.3195
      3 O2G        -4.0432   -4.0839    7.3322 O.co2     1 ACP         0.3195
      4 O3G        -5.0316   -4.0067    4.9671 O.3       1 ACP         0.0326
      5 PB         -3.7545   -7.0165    4.0009 P.3       1 ACP        -1.2804
      6 O1B        -5.0072   -6.5657    3.2865 O.co2     1 ACP         0.3195
      7 O2B        -3.4349   -8.4774    4.2198 O.co2     1 ACP         0.3195
      8 C3B        -3.7376   -6.1965    5.6566 C.3       1 ACP         0.8942
      9 PA         -1.8573   -6.2723    1.8436 P.3       1 ACP        -1.1062
     10 O1A        -2.8476   -5.5747    0.9368 O.co2     1 ACP         0.3195
     11 O2A        -1.3728   -7.6703    1.5255 O.co2     1 ACP         0.3195
     12 O3A        -2.4556   -6.2653    3.3632 O.3       1 ACP         0.4672
     13 O5'        -0.5697   -5.2855    2.0524 O.3       1 ACP         0.1618
     14 C5'        -0.7840   -3.8935    2.2172 C.3       1 ACP         0.1504
     15 C4'        -0.0724   -3.1466    1.1027 C.3       1 ACP         0.1111
     16 O4'        -0.8674   -3.1929   -0.0945 O.3       1 ACP        -0.1436
     17 C3'         0.1338   -1.6715    1.4027 C.3       1 ACP         0.1111
     18 O3'         1.2893   -1.4445    2.1808 O.3       1 ACP        -0.2728
     19 C2'         0.2158   -1.0724    0.0128 C.3       1 ACP         0.1111
     20 O2'         1.5141   -1.2448   -0.5513 O.3       1 ACP        -0.2728
     21 C1'        -0.7897   -1.9176   -0.7583 C.3       1 ACP         0.2693
     22 N9         -2.1040   -1.3333   -0.7704 N.pl3     1 ACP        -0.3222
     23 C8         -3.2124   -1.5345    0.2719 C.ar      1 ACP         0.1640
     24 N7         -4.2964   -0.8234   -0.0828 N.2       1 ACP        -0.1640
     25 C5         -3.8754   -0.2386   -1.2478 C.ar      1 ACP         0.0820
     26 C6         -4.7432    0.6719   -2.0470 C.ar      1 ACP         0.1640
     27 N6         -5.9725    0.9415   -1.6366 N.pl3     1 ACP        -0.4916
     28 N1         -4.1703    1.1517   -3.1536 N.pl3     1 ACP        -0.4390
     29 C2         -2.8174    0.7994   -3.5215 C.ar      1 ACP         0.5691
     30 N3         -2.0475    0.0097   -2.8393 N.ar      1 ACP        -0.4283
     31 C4         -2.6278   -0.4836   -1.7071 C.ar      1 ACP         0.2226
     32 HOG3       -5.2311   -3.0638    4.7843 H         1 ACP         0.2010
     33 H3B1       -4.6191   -6.5632    6.1942 H         1 ACP        -0.0393
     34 H3B2       -2.8534   -6.5801    6.1776 H         1 ACP        -0.0393
     35 H5'1       -1.8599   -3.6946    2.1849 H         1 ACP        -0.0393
     36 H5'2       -0.3934   -3.5881    3.1930 H         1 ACP        -0.0393
     37 H4'         0.8883   -3.6447    0.8783 H         1 ACP        -0.0393
     38 H3'        -0.7368   -1.2359    1.9871 H         1 ACP        -0.0393
     39 HO3'        1.3407   -0.4871    2.3218 H         1 ACP         0.2010
     40 H2'        -0.0343   -0.0280    0.0196 H         1 ACP        -0.0393
     41 HO2'        1.4978   -0.8409   -1.4361 H         1 ACP         0.2010
     42 H1'        -0.5175   -2.1046   -1.7826 H         1 ACP        -0.0393
     43 H8         -3.2310   -2.1319    1.1889 H         1 ACP         0.0000
     44 HN61       -6.3230    0.5316   -0.7829 H         1 ACP         0.2048
     45 HN62       -6.5628    1.5584   -2.1760 H         1 ACP         0.2048
     46 H2         -2.4822    1.2710   -4.4579 H         1 ACP        -0.1292
     47 H47        -4.7200    1.7780   -3.7346 H         1 ACP         0.2048
@<TRIPOS>BOND
     1    1    2 2
     2    1    3 1
     3    1    4 1
     4    1    8 1
     5    4   32 1
     6    5    6 2
     7    5    7 1
     8    5    8 1
     9    5   12 1
    10    8   33 1
    11    8   34 1
    12    9   10 2
    13    9   11 1
    14    9   12 1
    15    9   13 1
    16   13   14 1
    17   14   15 1
    18   14   35 1
    19   14   36 1
    20   15   16 1
    21   15   17 1
    22   15   37 1
    23   16   21 1
    24   17   18 1
    25   17   19 1
    26   17   38 1
    27   18   39 1
    28   19   20 1
    29   19   21 1
    30   19   40 1
    31   20   41 1
    32   21   22 1
    33   21   42 1
    34   22   23 ar
    35   22   31 ar
    36   23   24 ar
    37   23   43 1
    38   24   25 ar
    39   25   26 ar
    40   25   31 ar
    41   26   27 1
    42   26   28 ar
    43   27   44 1
    44   27   45 1
    45   28   29 ar
    46   28   47 1
    47   29   30 ar
    48   29   46 1
    49   30   31 ar
@<TRIPOS>SUBSTRUCTURE
     1 ACP         1 GROUP 0 A     ****
@<TRIPOS>MOLECULE
[[5-(6-amino-1,8-dihydropurine-6,8-diylium-7-id-9-yl)-3,4-dihydroxy-tetrahydrofuran-2-yl]methoxy-oxido-phosphoryl]oxy-[[hydroxy(oxido)phosphoryl]methyl]phosphinate
   47    49     1     0     0
SMALL
USER_CHARGES

@<TRIPOS>ATOM
      1 PG          1.2236   -3.5229    6.3919 P.3       1 ACP        -1.2804
      2 O1G         1.4736   -3.1738    7.8405 O.co2     1 ACP         0.3195
      3 O2G        -0.0853   -3.2096    5.7042 O.co2     1 ACP         0.3195
      4 O3G         2.4582   -2.9705    5.4806 O.3       1 ACP         0.0326
      5 PB          1.3521   -6.2215    4.5819 P.3       1 ACP        -1.2804
      6 O1B         1.6889   -7.6738    4.8273 O.co2     1 ACP         0.3195
      7 O2B         2.0617   -5.3975    3.5322 O.co2     1 ACP         0.3195
      8 C3B         1.5324   -5.3331    6.1919 C.3       1 ACP         0.8942
      9 PA         -1.2314   -6.3276    3.1254 P.3       1 ACP        -1.1062
     10 O1A        -2.6228   -5.8393    3.4649 O.co2     1 ACP         0.3195
     11 O2A        -1.0069   -7.7472    2.6513 O.co2     1 ACP         0.3195
     12 O3A        -0.2601   -6.0511    4.4088 O.3       1 ACP         0.4672
     13 O5'        -0.5697   -5.2855    2.0524 O.3       1 ACP         0.1618
     14 C5'        -0.7840   -3.8935    2.2172 C.3       1 ACP         0.1504
     15 C4'        -0.0724   -3.1466    1.1027 C.3       1 ACP         0.1111
     16 O4'        -0.8674   -3.1929   -0.0945 O.3       1 ACP        -0.1436
     17 C3'         0.1338   -1.6715    1.4027 C.3       1 ACP         0.1111
     18 O3'         1.2893   -1.4445    2.1808 O.3       1 ACP        -0.2728
     19 C2'         0.2158   -1.0724    0.0128 C.3       1 ACP         0.1111
     20 O2'         1.5141   -1.2448   -0.5513 O.3       1 ACP        -0.2728
     21 C1'        -0.7897   -1.9176   -0.7583 C.3       1 ACP         0.2693
     22 N9         -2.1040   -1.3333   -0.7704 N.pl3     1 ACP        -0.3222
     23 C8         -3.3877   -1.9383   -0.1859 C.ar      1 ACP         0.1640
     24 N7         -4.4144   -1.0952   -0.3898 N.2       1 ACP        -0.1640
     25 C5         -3.7988   -0.0622   -1.0459 C.ar      1 ACP         0.0820
     26 C6         -4.5350    1.1514   -1.4997 C.ar      1 ACP         0.1640
     27 N6         -5.8347    1.2592   -1.2722 N.pl3     1 ACP        -0.4916
     28 N1         -3.7771    2.0576   -2.1221 N.pl3     1 ACP        -0.4390
     29 C2         -2.3607    1.8514   -2.3252 C.ar      1 ACP         0.5691
     30 N3         -1.7031    0.8030   -1.9377 N.ar      1 ACP        -0.4283
     31 C4         -2.4728   -0.1265   -1.3008 C.ar      1 ACP         0.2226
     32 HOG3        2.6436   -2.0072    5.4785 H         1 ACP         0.2010
     33 H3B1        0.8640   -5.8348    6.9005 H         1 ACP        -0.0393
     34 H3B2        2.5599   -5.5143    6.5265 H         1 ACP        -0.0393
     35 H5'1       -1.8599   -3.6946    2.1849 H         1 ACP        -0.0393
     36 H5'2       -0.3934   -3.5881    3.1930 H         1 ACP        -0.0393
     37 H4'         0.8883   -3.6447    0.8783 H         1 ACP        -0.0393
     38 H3'        -0.7368   -1.2359    1.9871 H         1 ACP        -0.0393
     39 HO3'        1.1625   -1.9325    3.0084 H         1 ACP         0.2010
     40 H2'        -0.0343   -0.0280    0.0196 H         1 ACP        -0.0393
     41 HO2'        1.4978   -0.8409   -1.4361 H         1 ACP         0.2010
     42 H1'        -0.5175   -2.1046   -1.7826 H         1 ACP        -0.0393
     43 H8         -3.5590   -2.8873    0.3318 H         1 ACP         0.0000
     44 HN61       -6.3278    0.5206   -0.7915 H         1 ACP         0.2048
     45 HN62       -6.3361    2.0806   -1.5783 H         1 ACP         0.2048
     46 H2         -1.8692    2.6833   -2.8525 H         1 ACP        -0.1292
     47 H47        -4.2310    2.9046   -2.4517 H         1 ACP         0.2048
@<TRIPOS>BOND
     1    1    2 2
     2    1    3 1
     3    1    4 1
     4    1    8 1
     5    4   32 1
     6    5    6 2
     7    5    7 1
     8    5    8 1
     9    5   12 1
    10    8   33 1
    11    8   34 1
    12    9   10 2
    13    9   11 1
    14    9   12 1
    15    9   13 1
    16   13   14 1
    17   14   15 1
    18   14   35 1
    19   14   36 1
    20   15   16 1
    21   15   17 1
    22   15   37 1
    23   16   21 1
    24   17   18 1
    25   17   19 1
    26   17   38 1
    27   18   39 1
    28   19   20 1
    29   19   21 1
    30   19   40 1
    31   20   41 1
    32   21   22 1
    33   21   42 1
    34   22   23 ar
    35   22   31 ar
    36   23   24 ar
    37   23   43 1
    38   24   25 ar
    39   25   26 ar
    40   25   31 ar
    41   26   27 1
    42   26   28 ar
    43   27   44 1
    44   27   45 1
    45   28   29 ar
    46   28   47 1
    47   29   30 ar
    48   29   46 1
    49   30   31 ar
@<TRIPOS>SUBSTRUCTURE
     1 ACP         1 GROUP 0 A     ****
@<TRIPOS>MOLECULE
[[5-(6-amino-1,8-dihydropurine-6,8-diylium-7-id-9-yl)-3,4-dihydroxy-tetrahydrofuran-2-yl]methoxy-oxido-phosphoryl]oxy-[[hydroxy(oxido)phosphoryl]methyl]phosphinate
   47    49     1     0     0
SMALL
USER_CHARGES

@<TRIPOS>ATOM
      1 PG          2.1361   -2.5009   -7.9574 P.3       1 ACP        -1.2804
      2 O1G         1.3994   -3.6941   -8.5196 O.co2     1 ACP         0.3195
      3 O2G         3.5277   -2.6152   -7.3789 O.co2     1 ACP         0.3195
      4 O3G         2.1001   -1.2822   -9.0406 O.3       1 ACP         0.0326
      5 PB          1.5457   -0.2441   -5.6916 P.3       1 ACP        -1.2804
      6 O1B         0.4115    0.0653   -4.7426 O.co2     1 ACP         0.3195
      7 O2B         2.0743    0.7765   -6.6731 O.co2     1 ACP         0.3195
      8 C3B         1.0610   -1.7398   -6.6623 C.3       1 ACP         0.8942
      9 PA          3.9534   -0.2075   -3.9573 P.3       1 ACP        -1.1062
     10 O1A         4.6225    0.8729   -4.7788 O.co2     1 ACP         0.3195
     11 O2A         4.7732   -1.3027   -3.3100 O.co2     1 ACP         0.3195
     12 O3A         2.7896   -0.9020   -4.8683 O.3       1 ACP         0.4672
     13 O5'         3.0198    0.5138   -2.8245 O.3       1 ACP         0.1618
     14 C5'         2.2816   -0.2918   -1.9206 C.3       1 ACP         0.1504
     15 C4'         2.7248    0.0226   -0.4980 C.3       1 ACP         0.1111
     16 O4'         2.4697    1.4219   -0.2462 O.3       1 ACP        -0.1436
     17 C3'         1.9404   -0.7419    0.5596 C.3       1 ACP         0.1111
     18 O3'         2.7418   -0.8086    1.7389 O.3       1 ACP        -0.2728
     19 C2'         0.7477    0.1630    0.7858 C.3       1 ACP         0.1111
     20 O2'         0.1373   -0.0577    2.0407 O.3       1 ACP        -0.2728
     21 C1'         1.3733    1.5427    0.6747 C.3       1 ACP         0.2693
     22 N9          0.4520    2.5240    0.1767 N.pl3     1 ACP        -0.3222
     23 C8         -1.0660    2.5608    0.3999 C.ar      1 ACP         0.1640
     24 N7         -1.5852    3.6333   -0.2221 N.2       1 ACP        -0.1640
     25 C5         -0.4682    4.1996   -0.7771 C.ar      1 ACP         0.0820
     26 C6         -0.5216    5.4476   -1.5899 C.ar      1 ACP         0.1640
     27 N6         -1.6813    6.0510   -1.7982 N.pl3     1 ACP        -0.4916
     28 N1          0.6621    5.8575   -2.0523 N.pl3     1 ACP        -0.4390
     29 C2          1.8795    5.1301   -1.7717 C.ar      1 ACP         0.5691
     30 N3          1.9458    4.0434   -1.0670 N.ar      1 ACP        -0.4283
     31 C4          0.7388    3.6199   -0.5917 C.ar      1 ACP         0.2226
     32 HOG3        2.4989   -1.4300   -9.9245 H         1 ACP         0.2010
     33 H3B1        0.8583   -2.5317   -5.9328 H         1 ACP        -0.0393
     34 H3B2        0.1113   -1.4923   -7.1495 H         1 ACP        -0.0393
     35 H5'1        1.2153   -0.0781   -2.0454 H         1 ACP        -0.0393
     36 H5'2        2.4645   -1.3454   -2.1547 H         1 ACP        -0.0393
     37 H4'         3.8046   -0.1390   -0.4011 H         1 ACP        -0.0393
     38 H3'         1.6787   -1.7627    0.2719 H         1 ACP        -0.0393
     39 HO3'        3.5553   -1.2733    1.4913 H         1 ACP         0.2010
     40 H2'         0.0002   -0.0084   -0.0014 H         1 ACP        -0.0393
     41 HO2'        0.8091    0.1203    2.7213 H         1 ACP         0.2010
     42 H1'         1.7718    1.9211    1.6015 H         1 ACP        -0.0393
     43 H8         -1.7235    1.8833    0.9537 H         1 ACP         0.0000
     44 HN61       -2.5296    5.6672   -1.4072 H         1 ACP         0.2048
     45 HN62       -1.7205    6.8969   -2.3483 H         1 ACP         0.2048
     46 H2          2.7750    5.5878   -2.2190 H         1 ACP        -0.1292
     47 H47         0.6808    6.7046   -2.6128 H         1 ACP         0.2048
@<TRIPOS>BOND
     1    1    2 2
     2    1    3 1
     3    1    4 1
     4    1    8 1
     5    4   32 1
     6    5    6 2
     7    5    7 1
     8    5    8 1
     9    5   12 1
    10    8   33 1
    11    8   34 1
    12    9   10 2
    13    9   11 1
    14    9   12 1
    15    9   13 1
    16   13   14 1
    17   14   15 1
    18   14   35 1
    19   14   36 1
    20   15   16 1
    21   15   17 1
    22   15   37 1
    23   16   21 1
    24   17   18 1
    25   17   19 1
    26   17   38 1
    27   18   39 1
    28   19   20 1
    29   19   21 1
    30   19   40 1
    31   20   41 1
    32   21   22 1
    33   21   42 1
    34   22   23 ar
    35   22   31 ar
    36   23   24 ar
    37   23   43 1
    38   24   25 ar
    39   25   26 ar
    40   25   31 ar
    41   26   27 1
    42   26   28 ar
    43   27   44 1
    44   27   45 1
    45   28   29 ar
    46   28   47 1
    47   29   30 ar
    48   29   46 1
    49   30   31 ar
@<TRIPOS>SUBSTRUCTURE
     1 ACP         1 GROUP 0 A     ****
@<TRIPOS>MOLECULE
[[5-(6-amino-1,8-dihydropurine-6,8-diylium-7-id-9-yl)-3,4-dihydroxy-tetrahydrofuran-2-yl]methoxy-oxido-phosphoryl]oxy-[[hydroxy(oxido)phosphoryl]methyl]phosphinate
   47    49     1     0     0
SMALL
USER_CHARGES

@<TRIPOS>ATOM
      1 PG          1.5545   -2.5282   -6.7473 P.3       1 ACP        -1.2804
      2 O1G         0.2908   -3.1927   -7.2419 O.co2     1 ACP         0.3195
      3 O2G         2.5731   -1.9346   -7.6929 O.co2     1 ACP         0.3195
      4 O3G         1.1768   -1.4304   -5.6019 O.3       1 ACP         0.0326
      5 PB          4.0470   -3.3743   -4.8377 P.3       1 ACP        -1.2804
      6 O1B         5.0546   -3.0549   -5.9173 O.co2     1 ACP         0.3195
      7 O2B         4.2812   -4.4627   -3.8155 O.co2     1 ACP         0.3195
      8 C3B         2.4404   -3.7420   -5.6731 C.3       1 ACP         0.8942
      9 PA          4.4771   -0.9086   -3.2433 P.3       1 ACP        -1.1062
     10 O1A         5.4067   -0.2050   -4.2080 O.co2     1 ACP         0.3195
     11 O2A         5.0200   -1.5784   -1.9995 O.co2     1 ACP         0.3195
     12 O3A         3.5986   -2.0028   -4.0787 O.3       1 ACP         0.4672
     13 O5'         3.2883    0.1336   -2.8242 O.3       1 ACP         0.1618
     14 C5'         2.2816   -0.2918   -1.9206 C.3       1 ACP         0.1504
     15 C4'         2.7248    0.0226   -0.4980 C.3       1 ACP         0.1111
     16 O4'         2.4697    1.4219   -0.2462 O.3       1 ACP        -0.1436
     17 C3'         1.9404   -0.7419    0.5596 C.3       1 ACP         0.1111
     18 O3'         2.7418   -0.8086    1.7389 O.3       1 ACP        -0.2728
     19 C2'         0.7477    0.1630    0.7858 C.3       1 ACP         0.1111
     20 O2'         0.1373   -0.0577    2.0407 O.3       1 ACP        -0.2728
     21 C1'         1.3733    1.5427    0.6747 C.3       1 ACP         0.2693
     22 N9          0.4520    2.5240    0.1767 N.pl3     1 ACP        -0.3222
     23 C8         -1.0660    2.5608    0.3999 C.ar      1 ACP         0.1640
     24 N7         -1.5852    3.6333   -0.2221 N.2       1 ACP        -0.1640
     25 C5         -0.4682    4.1996   -0.7771 C.ar      1 ACP         0.0820
     26 C6         -0.5216    5.4476   -1.5899 C.ar      1 ACP         0.1640
     27 N6         -1.6813    6.0510   -1.7982 N.pl3     1 ACP        -0.4916
     28 N1          0.6621    5.8575   -2.0523 N.pl3     1 ACP        -0.4390
     29 C2          1.8795    5.1301   -1.7717 C.ar      1 ACP         0.5691
     30 N3          1.9458    4.0434   -1.0670 N.ar      1 ACP        -0.4283
     31 C4          0.7388    3.6199   -0.5917 C.ar      1 ACP         0.2226
     32 HOG3        0.5809   -0.6894   -5.8426 H         1 ACP         0.2010
     33 H3B1        2.6084   -4.6296   -6.2931 H         1 ACP        -0.0393
     34 H3B2        1.7415   -4.0253   -4.8783 H         1 ACP        -0.0393
     35 H5'1        1.3500    0.2325   -2.1560 H         1 ACP        -0.0393
     36 H5'2        2.1267   -1.3683   -2.0444 H         1 ACP        -0.0393
     37 H4'         3.8046   -0.1390   -0.4011 H         1 ACP        -0.0393
     38 H3'         1.6787   -1.7627    0.2719 H         1 ACP        -0.0393
     39 HO3'        2.2231   -1.2979    2.3952 H         1 ACP         0.2010
     40 H2'         0.0002   -0.0084   -0.0014 H         1 ACP        -0.0393
     41 HO2'       -0.1554   -0.9852    2.0577 H         1 ACP         0.2010
     42 H1'         1.7718    1.9211    1.6015 H         1 ACP        -0.0393
     43 H8         -1.7235    1.8833    0.9537 H         1 ACP         0.0000
     44 HN61       -2.5296    5.6672   -1.4072 H         1 ACP         0.2048
     45 HN62       -1.7205    6.8969   -2.3483 H         1 ACP         0.2048
     46 H2          2.7750    5.5878   -2.2190 H         1 ACP        -0.1292
     47 H47         0.6808    6.7046   -2.6128 H         1 ACP         0.2048
@<TRIPOS>BOND
     1    1    2 2
     2    1    3 1
     3    1    4 1
     4    1    8 1
     5    4   32 1
     6    5    6 2
     7    5    7 1
     8    5    8 1
     9    5   12 1
    10    8   33 1
    11    8   34 1
    12    9   10 2
    13    9   11 1
    14    9   12 1
    15    9   13 1
    16   13   14 1
    17   14   15 1
    18   14   35 1
    19   14   36 1
    20   15   16 1
    21   15   17 1
    22   15   37 1
    23   16   21 1
    24   17   18 1
    25   17   19 1
    26   17   38 1
    27   18   39 1
    28   19   20 1
    29   19   21 1
    30   19   40 1
    31   20   41 1
    32   21   22 1
    33   21   42 1
    34   22   23 ar
    35   22   31 ar
    36   23   24 ar
    37   23   43 1
    38   24   25 ar
    39   25   26 ar
    40   25   31 ar
    41   26   27 1
    42   26   28 ar
    43   27   44 1
    44   27   45 1
    45   28   29 ar
    46   28   47 1
    47   29   30 ar
    48   29   46 1
    49   30   31 ar
@<TRIPOS>SUBSTRUCTURE
     1 ACP         1 GROUP 0 A     ****
@<TRIPOS>MOLECULE
[[5-(6-amino-1,8-dihydropurine-6,8-diylium-7-id-9-yl)-3,4-dihydroxy-tetrahydrofuran-2-yl]methoxy-oxido-phosphoryl]oxy-[[hydroxy(oxido)phosphoryl]methyl]phosphinate
   47    49     1     0     0
SMALL
USER_CHARGES

@<TRIPOS>ATOM
      1 PG          2.1679    5.0449   -2.4981 P.3       1 ACP        -1.2804
      2 O1G         2.7920    3.9141   -1.7142 O.co2     1 ACP         0.3195
      3 O2G         1.5458    6.2445   -1.8211 O.co2     1 ACP         0.3195
      4 O3G         3.2132    5.5524   -3.6425 O.3       1 ACP         0.0326
      5 PB          1.2692    3.0530   -4.9064 P.3       1 ACP        -1.2804
      6 O1B         2.2575    3.6756   -5.8647 O.co2     1 ACP         0.3195
      7 O2B        -0.0472    2.4743   -5.3718 O.co2     1 ACP         0.3195
      8 C3B         0.8873    4.3136   -3.6106 C.3       1 ACP         0.8942
      9 PA          2.8601    0.6157   -4.3273 P.3       1 ACP        -1.1062
     10 O1A         4.1150    1.0126   -5.0738 O.co2     1 ACP         0.3195
     11 O2A         1.8946   -0.3873   -4.9208 O.co2     1 ACP         0.3195
     12 O3A         2.0316    1.9723   -3.9530 O.3       1 ACP         0.4672
     13 O5'         3.2883    0.1336   -2.8242 O.3       1 ACP         0.1618
     14 C5'         2.2816   -0.2918   -1.9206 C.3       1 ACP         0.1504
     15 C4'         2.7248    0.0226   -0.4980 C.3       1 ACP         0.1111
     16 O4'         2.4697    1.4219   -0.2462 O.3       1 ACP        -0.1436
     17 C3'         1.9404   -0.7419    0.5596 C.3       1 ACP         0.1111
     18 O3'         2.7418   -0.8086    1.7389 O.3       1 ACP        -0.2728
     19 C2'         0.7477    0.1630    0.7858 C.3       1 ACP         0.1111
     20 O2'         0.1373   -0.0577    2.0407 O.3       1 ACP        -0.2728
     21 C1'         1.3733    1.5427    0.6747 C.3       1 ACP         0.2693
     22 N9          0.4520    2.5240    0.1767 N.pl3     1 ACP        -0.3222
     23 C8         -0.7463    2.2774   -0.7501 C.ar      1 ACP         0.1640
     24 N7         -1.3714    3.4419   -0.9948 N.2       1 ACP        -0.1640
     25 C5         -0.6104    4.3223   -0.2723 C.ar      1 ACP         0.0820
     26 C6         -0.9062    5.7820   -0.2194 C.ar      1 ACP         0.1640
     27 N6         -1.9385    6.2713   -0.8881 N.pl3     1 ACP        -0.4916
     28 N1         -0.0613    6.4906    0.5336 N.pl3     1 ACP        -0.4390
     29 C2          1.0416    5.8662    1.2291 C.ar      1 ACP         0.5691
     30 N3          1.3146    4.5989    1.1954 N.ar      1 ACP        -0.4283
     31 C4          0.4541    3.8697    0.4273 C.ar      1 ACP         0.2226
     32 HOG3        4.0870    5.8959   -3.3586 H         1 ACP         0.2010
     33 H3B1        0.4166    5.1575   -4.1269 H         1 ACP        -0.0393
     34 H3B2        0.1288    3.8628   -2.9611 H         1 ACP        -0.0393
     35 H5'1        1.3500    0.2325   -2.1560 H         1 ACP        -0.0393
     36 H5'2        2.1267   -1.3683   -2.0444 H         1 ACP        -0.0393
     37 H4'         3.8046   -0.1390   -0.4011 H         1 ACP        -0.0393
     38 H3'         1.6787   -1.7627    0.2719 H         1 ACP        -0.0393
     39 HO3'        2.2231   -1.2979    2.3952 H         1 ACP         0.2010
     40 H2'         0.0002   -0.0084   -0.0014 H         1 ACP        -0.0393
     41 HO2'       -0.6132    0.5577    2.1063 H         1 ACP         0.2010
     42 H1'         1.7718    1.9211    1.6015 H         1 ACP        -0.0393
     43 H8         -1.1244    1.3534   -1.1987 H         1 ACP         0.0000
     44 HN61       -2.5259    5.6573   -1.4336 H         1 ACP         0.2048
     45 HN62       -2.1416    7.2600   -0.8539 H         1 ACP         0.2048
     46 H2          1.6509    6.5764    1.8088 H         1 ACP        -0.1292
     47 H47        -0.2190    7.4917    0.6033 H         1 ACP         0.2048
@<TRIPOS>BOND
     1    1    2 2
     2    1    3 1
     3    1    4 1
     4    1    8 1
     5    4   32 1
     6    5    6 2
     7    5    7 1
     8    5    8 1
     9    5   12 1
    10    8   33 1
    11    8   34 1
    12    9   10 2
    13    9   11 1
    14    9   12 1
    15    9   13 1
    16   13   14 1
    17   14   15 1
    18   14   35 1
    19   14   36 1
    20   15   16 1
    21   15   17 1
    22   15   37 1
    23   16   21 1
    24   17   18 1
    25   17   19 1
    26   17   38 1
    27   18   39 1
    28   19   20 1
    29   19   21 1
    30   19   40 1
    31   20   41 1
    32   21   22 1
    33   21   42 1
    34   22   23 ar
    35   22   31 ar
    36   23   24 ar
    37   23   43 1
    38   24   25 ar
    39   25   26 ar
    40   25   31 ar
    41   26   27 1
    42   26   28 ar
    43   27   44 1
    44   27   45 1
    45   28   29 ar
    46   28   47 1
    47   29   30 ar
    48   29   46 1
    49   30   31 ar
@<TRIPOS>SUBSTRUCTURE
     1 ACP         1 GROUP 0 A     ****
@<TRIPOS>MOLECULE
[[5-(6-amino-1,8-dihydropurine-6,8-diylium-7-id-9-yl)-3,4-dihydroxy-tetrahydrofuran-2-yl]methoxy-oxido-phosphoryl]oxy-[[hydroxy(oxido)phosphoryl]methyl]phosphinate
   47    49     1     0     0
SMALL
USER_CHARGES

@<TRIPOS>ATOM
      1 PG         -5.6703   -3.0761    2.9952 P.3       1 ACP        -1.2804
      2 O1G        -6.7828   -2.4785    2.1657 O.co2     1 ACP         0.3195
      3 O2G        -4.2269   -2.6636    2.8201 O.co2     1 ACP         0.3195
      4 O3G        -6.0678   -2.9934    4.5747 O.3       1 ACP         0.0326
      5 PB         -4.5772   -6.0728    3.6279 P.3       1 ACP        -1.2804
      6 O1B        -4.9639   -7.4745    3.2178 O.co2     1 ACP         0.3195
      7 O2B        -4.4851   -5.6554    5.0776 O.co2     1 ACP         0.3195
      8 C3B        -5.7479   -4.9108    2.7953 C.3       1 ACP         0.8942
      9 PA         -1.7212   -6.2756    2.8475 P.3       1 ACP        -1.1062
     10 O1A        -1.7898   -7.6341    2.1847 O.co2     1 ACP         0.3195
     11 O2A        -1.1337   -6.1229    4.2339 O.co2     1 ACP         0.3195
     12 O3A        -3.2188   -5.6244    2.8457 O.3       1 ACP         0.4672
     13 O5'        -0.9728   -5.2427    1.8237 O.3       1 ACP         0.1618
     14 C5'        -0.7840   -3.8935    2.2172 C.3       1 ACP         0.1504
     15 C4'        -0.0724   -3.1466    1.1027 C.3       1 ACP         0.1111
     16 O4'        -0.8674   -3.1929   -0.0945 O.3       1 ACP        -0.1436
     17 C3'         0.1338   -1.6715    1.4027 C.3       1 ACP         0.1111
     18 O3'         1.2893   -1.4445    2.1808 O.3       1 ACP        -0.2728
     19 C2'         0.2158   -1.0724    0.0128 C.3       1 ACP         0.1111
     20 O2'         1.5141   -1.2448   -0.5513 O.3       1 ACP        -0.2728
     21 C1'        -0.7897   -1.9176   -0.7583 C.3       1 ACP         0.2693
     22 N9         -2.1040   -1.3333   -0.7704 N.pl3     1 ACP        -0.3222
     23 C8         -2.9659   -0.9765    0.4483 C.ar      1 ACP         0.1640
     24 N7         -4.1307   -0.4482    0.0350 N.2       1 ACP        -0.1640
     25 C5         -3.9835   -0.4834   -1.3265 C.ar      1 ACP         0.0820
     26 C6         -5.0367    0.0074   -2.2596 C.ar      1 ACP         0.1640
     27 N6         -6.1673    0.5005   -1.7791 N.pl3     1 ACP        -0.4916
     28 N1         -4.7242   -0.1024   -3.5532 N.pl3     1 ACP        -0.4390
     29 C2         -3.4603   -0.6562   -3.9841 C.ar      1 ACP         0.5691
     30 N3         -2.5322   -1.0878   -3.1877 N.ar      1 ACP        -0.4283
     31 C4         -2.8461   -0.9779   -1.8643 C.ar      1 ACP         0.2226
     32 HOG3       -6.2300   -2.1108    4.9707 H         1 ACP         0.2010
     33 H3B1       -5.6640   -5.1025    1.7198 H         1 ACP        -0.0393
     34 H3B2       -6.7532   -5.2173    3.1050 H         1 ACP        -0.0393
     35 H5'1       -1.7614   -3.4427    2.4167 H         1 ACP        -0.0393
     36 H5'2       -0.1870   -3.8723    3.1344 H         1 ACP        -0.0393
     37 H4'         0.8883   -3.6447    0.8783 H         1 ACP        -0.0393
     38 H3'        -0.7368   -1.2359    1.9871 H         1 ACP        -0.0393
     39 HO3'        1.3407   -0.4871    2.3218 H         1 ACP         0.2010
     40 H2'        -0.0343   -0.0280    0.0196 H         1 ACP        -0.0393
     41 HO2'        2.1443   -0.7955    0.0378 H         1 ACP         0.2010
     42 H1'        -0.5175   -2.1046   -1.7826 H         1 ACP        -0.0393
     43 H8         -2.7697   -1.0875    1.5194 H         1 ACP         0.0000
     44 HN61       -6.3171    0.5450   -0.7814 H         1 ACP         0.2048
     45 HN62       -6.8827    0.8341   -2.4090 H         1 ACP         0.2048
     46 H2         -3.3452   -0.6828   -5.0785 H         1 ACP        -0.1292
     47 H47        -5.4089    0.2183   -4.2317 H         1 ACP         0.2048
@<TRIPOS>BOND
     1    1    2 2
     2    1    3 1
     3    1    4 1
     4    1    8 1
     5    4   32 1
     6    5    6 2
     7    5    7 1
     8    5    8 1
     9    5   12 1
    10    8   33 1
    11    8   34 1
    12    9   10 2
    13    9   11 1
    14    9   12 1
    15    9   13 1
    16   13   14 1
    17   14   15 1
    18   14   35 1
    19   14   36 1
    20   15   16 1
    21   15   17 1
    22   15   37 1
    23   16   21 1
    24   17   18 1
    25   17   19 1
    26   17   38 1
    27   18   39 1
    28   19   20 1
    29   19   21 1
    30   19   40 1
    31   20   41 1
    32   21   22 1
    33   21   42 1
    34   22   23 ar
    35   22   31 ar
    36   23   24 ar
    37   23   43 1
    38   24   25 ar
    39   25   26 ar
    40   25   31 ar
    41   26   27 1
    42   26   28 ar
    43   27   44 1
    44   27   45 1
    45   28   29 ar
    46   28   47 1
    47   29   30 ar
    48   29   46 1
    49   30   31 ar
@<TRIPOS>SUBSTRUCTURE
     1 ACP         1 GROUP 0 A     ****
@<TRIPOS>MOLECULE
[[5-(6-amino-1,8-dihydropurine-6,8-diylium-7-id-9-yl)-3,4-dihydroxy-tetrahydrofuran-2-yl]methoxy-oxido-phosphoryl]oxy-[[hydroxy(oxido)phosphoryl]methyl]phosphinate
   47    49     1     0     0
SMALL
USER_CHARGES

@<TRIPOS>ATOM
      1 PG          6.8244   -3.1805   -5.4367 P.3       1 ACP        -1.2804
      2 O1G         8.0575   -2.5868   -6.0768 O.co2     1 ACP         0.3195
      3 O2G         5.4909   -3.2214   -6.1469 O.co2     1 ACP         0.3195
      4 O3G         7.1747   -4.6652   -4.8599 O.3       1 ACP         0.0326
      5 PB          5.1673   -2.7134   -2.6778 P.3       1 ACP        -1.2804
      6 O1B         5.2986   -1.8052   -1.4776 O.co2     1 ACP         0.3195
      7 O2B         5.1045   -4.2176   -2.5452 O.co2     1 ACP         0.3195
      8 C3B         6.5636   -2.3209   -3.8226 C.3       1 ACP         0.8942
      9 PA          2.3309   -2.4063   -3.4945 P.3       1 ACP        -1.1062
     10 O1A         2.0488   -3.8856   -3.3475 O.co2     1 ACP         0.3195
     11 O2A         1.6532   -1.5962   -4.5784 O.co2     1 ACP         0.3195
     12 O3A         3.9454   -2.1996   -3.6270 O.3       1 ACP         0.4672
     13 O5'         2.0818   -1.6902   -2.0452 O.3       1 ACP         0.1618
     14 C5'         2.2816   -0.2918   -1.9206 C.3       1 ACP         0.1504
     15 C4'         2.7248    0.0226   -0.4980 C.3       1 ACP         0.1111
     16 O4'         2.4697    1.4219   -0.2462 O.3       1 ACP        -0.1436
     17 C3'         1.9404   -0.7419    0.5596 C.3       1 ACP         0.1111
     18 O3'         2.7418   -0.8086    1.7389 O.3       1 ACP        -0.2728
     19 C2'         0.7477    0.1630    0.7858 C.3       1 ACP         0.1111
     20 O2'         0.1373   -0.0577    2.0407 O.3       1 ACP        -0.2728
     21 C1'         1.3733    1.5427    0.6747 C.3       1 ACP         0.2693
     22 N9          0.4520    2.5240    0.1767 N.pl3     1 ACP        -0.3222
     23 C8          0.1798    2.8712   -1.2933 C.ar      1 ACP         0.1640
     24 N7         -0.7494    3.8400   -1.3610 N.2       1 ACP        -0.1640
     25 C5         -1.0173    4.0603   -0.0358 C.ar      1 ACP         0.0820
     26 C6         -2.0105    5.0717    0.4241 C.ar      1 ACP         0.1640
     27 N6         -2.6723    5.7982   -0.4628 N.pl3     1 ACP        -0.4916
     28 N1         -2.1445    5.1522    1.7502 N.pl3     1 ACP        -0.4390
     29 C2         -1.3755    4.3143    2.6426 C.ar      1 ACP         0.5691
     30 N3         -0.5075    3.4292    2.2616 N.ar      1 ACP        -0.4283
     31 C4         -0.3667    3.3425    0.9070 C.ar      1 ACP         0.2226
     32 HOG3        7.4856   -5.3503   -5.4894 H         1 ACP         0.2010
     33 H3B1        6.4829   -1.2537   -4.0570 H         1 ACP        -0.0393
     34 H3B2        7.4822   -2.4600   -3.2417 H         1 ACP        -0.0393
     35 H5'1        3.0467    0.0218   -2.6379 H         1 ACP        -0.0393
     36 H5'2        1.3432    0.2220   -2.1518 H         1 ACP        -0.0393
     37 H4'         3.8046   -0.1390   -0.4011 H         1 ACP        -0.0393
     38 H3'         1.6787   -1.7627    0.2719 H         1 ACP        -0.0393
     39 HO3'        2.2231   -1.2979    2.3952 H         1 ACP         0.2010
     40 H2'         0.0002   -0.0084   -0.0014 H         1 ACP        -0.0393
     41 HO2'       -0.6132    0.5577    2.1063 H         1 ACP         0.2010
     42 H1'         1.7718    1.9211    1.6015 H         1 ACP        -0.0393
     43 H8          0.6089    2.4651   -2.2147 H         1 ACP         0.0000
     44 HN61       -2.5055    5.6680   -1.4503 H         1 ACP         0.2048
     45 HN62       -3.3462    6.4841   -0.1542 H         1 ACP         0.2048
     46 H2         -1.5932    4.4937    3.7066 H         1 ACP        -0.1292
     47 H47        -2.8098    5.8270    2.1160 H         1 ACP         0.2048
@<TRIPOS>BOND
     1    1    2 2
     2    1    3 1
     3    1    4 1
     4    1    8 1
     5    4   32 1
     6    5    6 2
     7    5    7 1
     8    5    8 1
     9    5   12 1
    10    8   33 1
    11    8   34 1
    12    9   10 2
    13    9   11 1
    14    9   12 1
    15    9   13 1
    16   13   14 1
    17   14   15 1
    18   14   35 1
    19   14   36 1
    20   15   16 1
    21   15   17 1
    22   15   37 1
    23   16   21 1
    24   17   18 1
    25   17   19 1
    26   17   38 1
    27   18   39 1
    28   19   20 1
    29   19   21 1
    30   19   40 1
    31   20   41 1
    32   21   22 1
    33   21   42 1
    34   22   23 ar
    35   22   31 ar
    36   23   24 ar
    37   23   43 1
    38   24   25 ar
    39   25   26 ar
    40   25   31 ar
    41   26   27 1
    42   26   28 ar
    43   27   44 1
    44   27   45 1
    45   28   29 ar
    46   28   47 1
    47   29   30 ar
    48   29   46 1
    49   30   31 ar
@<TRIPOS>SUBSTRUCTURE
     1 ACP         1 GROUP 0 A     ****
@<TRIPOS>MOLECULE
[[5-(6-amino-1,8-dihydropurine-6,8-diylium-7-id-9-yl)-3,4-dihydroxy-tetrahydrofuran-2-yl]methoxy-oxido-phosphoryl]oxy-[[hydroxy(oxido)phosphoryl]methyl]phosphinate
   47    49     1     0     0
SMALL
USER_CHARGES

@<TRIPOS>ATOM
      1 PG          3.3978   -4.4720    4.1597 P.3       1 ACP        -1.2804
      2 O1G         4.5468   -4.4212    5.1396 O.co2     1 ACP         0.3195
      3 O2G         2.0277   -3.9321    4.4994 O.co2     1 ACP         0.3195
      4 O3G         3.8799   -3.8591    2.7273 O.3       1 ACP         0.0326
      5 PB          1.8916   -6.7858    2.4414 P.3       1 ACP        -1.2804
      6 O1B         2.0390   -8.2805    2.2774 O.co2     1 ACP         0.3195
      7 O2B         1.9353   -5.8392    1.2639 O.co2     1 ACP         0.3195
      8 C3B         3.1842   -6.2316    3.6398 C.3       1 ACP         0.8942
      9 PA         -1.0048   -6.4109    2.9679 P.3       1 ACP        -1.1062
     10 O1A        -1.7723   -5.8853    4.1614 O.co2     1 ACP         0.3195
     11 O2A        -1.3819   -7.7301    2.3290 O.co2     1 ACP         0.3195
     12 O3A         0.5812   -6.4578    3.3543 O.3       1 ACP         0.4672
     13 O5'        -0.9728   -5.2427    1.8237 O.3       1 ACP         0.1618
     14 C5'        -0.7840   -3.8935    2.2172 C.3       1 ACP         0.1504
     15 C4'        -0.0724   -3.1466    1.1027 C.3       1 ACP         0.1111
     16 O4'        -0.8674   -3.1929   -0.0945 O.3       1 ACP        -0.1436
     17 C3'         0.1338   -1.6715    1.4027 C.3       1 ACP         0.1111
     18 O3'         1.2893   -1.4445    2.1808 O.3       1 ACP        -0.2728
     19 C2'         0.2158   -1.0724    0.0128 C.3       1 ACP         0.1111
     20 O2'         1.5141   -1.2448   -0.5513 O.3       1 ACP        -0.2728
     21 C1'        -0.7897   -1.9176   -0.7583 C.3       1 ACP         0.2693
     22 N9         -2.1040   -1.3333   -0.7704 N.pl3     1 ACP        -0.3222
     23 C8         -3.2124   -1.5345    0.2719 C.ar      1 ACP         0.1640
     24 N7         -4.2964   -0.8234   -0.0828 N.2       1 ACP        -0.1640
     25 C5         -3.8754   -0.2386   -1.2478 C.ar      1 ACP         0.0820
     26 C6         -4.7432    0.6719   -2.0470 C.ar      1 ACP         0.1640
     27 N6         -5.9725    0.9415   -1.6366 N.pl3     1 ACP        -0.4916
     28 N1         -4.1703    1.1517   -3.1536 N.pl3     1 ACP        -0.4390
     29 C2         -2.8174    0.7994   -3.5215 C.ar      1 ACP         0.5691
     30 N3         -2.0475    0.0097   -2.8393 N.ar      1 ACP        -0.4283
     31 C4         -2.6278   -0.4836   -1.7071 C.ar      1 ACP         0.2226
     32 HOG3        4.1943   -2.9304    2.6979 H         1 ACP         0.2010
     33 H3B1        3.0195   -6.8020    4.5606 H         1 ACP        -0.0393
     34 H3B2        4.1447   -6.5536    3.2224 H         1 ACP        -0.0393
     35 H5'1       -1.7614   -3.4427    2.4167 H         1 ACP        -0.0393
     36 H5'2       -0.1870   -3.8723    3.1344 H         1 ACP        -0.0393
     37 H4'         0.8883   -3.6447    0.8783 H         1 ACP        -0.0393
     38 H3'        -0.7368   -1.2359    1.9871 H         1 ACP        -0.0393
     39 HO3'        1.1625   -1.9325    3.0084 H         1 ACP         0.2010
     40 H2'        -0.0343   -0.0280    0.0196 H         1 ACP        -0.0393
     41 HO2'        1.6824   -2.2018   -0.5956 H         1 ACP         0.2010
     42 H1'        -0.5175   -2.1046   -1.7826 H         1 ACP        -0.0393
     43 H8         -3.2310   -2.1319    1.1889 H         1 ACP         0.0000
     44 HN61       -6.3230    0.5316   -0.7829 H         1 ACP         0.2048
     45 HN62       -6.5628    1.5584   -2.1760 H         1 ACP         0.2048
     46 H2         -2.4822    1.2710   -4.4579 H         1 ACP        -0.1292
     47 H47        -4.7200    1.7780   -3.7346 H         1 ACP         0.2048
@<TRIPOS>BOND
     1    1    2 2
     2    1    3 1
     3    1    4 1
     4    1    8 1
     5    4   32 1
     6    5    6 2
     7    5    7 1
     8    5    8 1
     9    5   12 1
    10    8   33 1
    11    8   34 1
    12    9   10 2
    13    9   11 1
    14    9   12 1
    15    9   13 1
    16   13   14 1
    17   14   15 1
    18   14   35 1
    19   14   36 1
    20   15   16 1
    21   15   17 1
    22   15   37 1
    23   16   21 1
    24   17   18 1
    25   17   19 1
    26   17   38 1
    27   18   39 1
    28   19   20 1
    29   19   21 1
    30   19   40 1
    31   20   41 1
    32   21   22 1
    33   21   42 1
    34   22   23 ar
    35   22   31 ar
    36   23   24 ar
    37   23   43 1
    38   24   25 ar
    39   25   26 ar
    40   25   31 ar
    41   26   27 1
    42   26   28 ar
    43   27   44 1
    44   27   45 1
    45   28   29 ar
    46   28   47 1
    47   29   30 ar
    48   29   46 1
    49   30   31 ar
@<TRIPOS>SUBSTRUCTURE
     1 ACP         1 GROUP 0 A     ****
@<TRIPOS>MOLECULE
[[5-(6-amino-1,8-dihydropurine-6,8-diylium-7-id-9-yl)-3,4-dihydroxy-tetrahydrofuran-2-yl]methoxy-oxido-phosphoryl]oxy-[[hydroxy(oxido)phosphoryl]methyl]phosphinate
   47    49     1     0     0
SMALL
USER_CHARGES

@<TRIPOS>ATOM
      1 PG          1.4076   -3.7216   -5.0483 P.3       1 ACP        -1.2804
      2 O1G         1.8307   -5.1532   -5.2815 O.co2     1 ACP         0.3195
      3 O2G        -0.0446   -3.3244   -4.9155 O.co2     1 ACP         0.3195
      4 O3G         2.2531   -3.1035   -3.7982 O.3       1 ACP         0.0326
      5 PB          1.8928   -0.8693   -6.5330 P.3       1 ACP        -1.2804
      6 O1B         0.4081   -0.6220   -6.6641 O.co2     1 ACP         0.3195
      7 O2B         2.8867   -0.3554   -7.5491 O.co2     1 ACP         0.3195
      8 C3B         2.1388   -2.6957   -6.3993 C.3       1 ACP         0.8942
      9 PA          2.3321    0.9617   -4.2393 P.3       1 ACP        -1.1062
     10 O1A         0.8820    1.3039   -3.9746 O.co2     1 ACP         0.3195
     11 O2A         3.2385    1.9433   -4.9501 O.co2     1 ACP         0.3195
     12 O3A         2.3890   -0.4639   -5.0338 O.3       1 ACP         0.4672
     13 O5'         3.0198    0.5138   -2.8245 O.3       1 ACP         0.1618
     14 C5'         2.2816   -0.2918   -1.9206 C.3       1 ACP         0.1504
     15 C4'         2.7248    0.0226   -0.4980 C.3       1 ACP         0.1111
     16 O4'         2.4697    1.4219   -0.2462 O.3       1 ACP        -0.1436
     17 C3'         1.9404   -0.7419    0.5596 C.3       1 ACP         0.1111
     18 O3'         2.7418   -0.8086    1.7389 O.3       1 ACP        -0.2728
     19 C2'         0.7477    0.1630    0.7858 C.3       1 ACP         0.1111
     20 O2'         0.1373   -0.0577    2.0407 O.3       1 ACP        -0.2728
     21 C1'         1.3733    1.5427    0.6747 C.3       1 ACP         0.2693
     22 N9          0.4520    2.5240    0.1767 N.pl3     1 ACP        -0.3222
     23 C8         -0.7463    2.2774   -0.7501 C.ar      1 ACP         0.1640
     24 N7         -1.3714    3.4419   -0.9948 N.2       1 ACP        -0.1640
     25 C5         -0.6104    4.3223   -0.2723 C.ar      1 ACP         0.0820
     26 C6         -0.9062    5.7820   -0.2194 C.ar      1 ACP         0.1640
     27 N6         -1.9385    6.2713   -0.8881 N.pl3     1 ACP        -0.4916
     28 N1         -0.0613    6.4906    0.5336 N.pl3     1 ACP        -0.4390
     29 C2          1.0416    5.8662    1.2291 C.ar      1 ACP         0.5691
     30 N3          1.3146    4.5989    1.1954 N.ar      1 ACP        -0.4283
     31 C4          0.4541    3.8697    0.4273 C.ar      1 ACP         0.2226
     32 HOG3        2.1736   -3.5350   -2.9209 H         1 ACP         0.2010
     33 H3B1        1.7759   -3.1279   -7.3385 H         1 ACP        -0.0393
     34 H3B2        3.2221   -2.8554   -6.3624 H         1 ACP        -0.0393
     35 H5'1        1.2153   -0.0781   -2.0454 H         1 ACP        -0.0393
     36 H5'2        2.4645   -1.3454   -2.1547 H         1 ACP        -0.0393
     37 H4'         3.8046   -0.1390   -0.4011 H         1 ACP        -0.0393
     38 H3'         1.6787   -1.7627    0.2719 H         1 ACP        -0.0393
     39 HO3'        2.2231   -1.2979    2.3952 H         1 ACP         0.2010
     40 H2'         0.0002   -0.0084   -0.0014 H         1 ACP        -0.0393
     41 HO2'       -0.6132    0.5577    2.1063 H         1 ACP         0.2010
     42 H1'         1.7718    1.9211    1.6015 H         1 ACP        -0.0393
     43 H8         -1.1244    1.3534   -1.1987 H         1 ACP         0.0000
     44 HN61       -2.5259    5.6573   -1.4336 H         1 ACP         0.2048
     45 HN62       -2.1416    7.2600   -0.8539 H         1 ACP         0.2048
     46 H2          1.6509    6.5764    1.8088 H         1 ACP        -0.1292
     47 H47        -0.2190    7.4917    0.6033 H         1 ACP         0.2048
@<TRIPOS>BOND
     1    1    2 2
     2    1    3 1
     3    1    4 1
     4    1    8 1
     5    4   32 1
     6    5    6 2
     7    5    7 1
     8    5    8 1
     9    5   12 1
    10    8   33 1
    11    8   34 1
    12    9   10 2
    13    9   11 1
    14    9   12 1
    15    9   13 1
    16   13   14 1
    17   14   15 1
    18   14   35 1
    19   14   36 1
    20   15   16 1
    21   15   17 1
    22   15   37 1
    23   16   21 1
    24   17   18 1
    25   17   19 1
    26   17   38 1
    27   18   39 1
    28   19   20 1
    29   19   21 1
    30   19   40 1
    31   20   41 1
    32   21   22 1
    33   21   42 1
    34   22   23 ar
    35   22   31 ar
    36   23   24 ar
    37   23   43 1
    38   24   25 ar
    39   25   26 ar
    40   25   31 ar
    41   26   27 1
    42   26   28 ar
    43   27   44 1
    44   27   45 1
    45   28   29 ar
    46   28   47 1
    47   29   30 ar
    48   29   46 1
    49   30   31 ar
@<TRIPOS>SUBSTRUCTURE
     1 ACP         1 GROUP 0 A     ****
@<TRIPOS>MOLECULE
[[5-(6-amino-1,8-dihydropurine-6,8-diylium-7-id-9-yl)-3,4-dihydroxy-tetrahydrofuran-2-yl]methoxy-oxido-phosphoryl]oxy-[[hydroxy(oxido)phosphoryl]methyl]phosphinate
   47    49     1     0     0
SMALL
USER_CHARGES

@<TRIPOS>ATOM
      1 PG         -2.0972   -1.8427   -2.7754 P.3       1 ACP        -1.2804
      2 O1G        -2.4670   -0.8699   -3.8708 O.co2     1 ACP         0.3195
      3 O2G        -1.1574   -1.4689   -1.6524 O.co2     1 ACP         0.3195
      4 O3G        -3.4544   -2.4952   -2.1493 O.3       1 ACP         0.0326
      5 PB          0.0763   -3.3491   -4.6681 P.3       1 ACP        -1.2804
      6 O1B        -0.2180   -2.4312   -5.8315 O.co2     1 ACP         0.3195
      7 O2B         0.4990   -4.7868   -4.8647 O.co2     1 ACP         0.3195
      8 C3B        -1.4180   -3.3598   -3.5813 C.3       1 ACP         0.8942
      9 PA          2.6179   -2.0499   -3.8561 P.3       1 ACP        -1.1062
     10 O1A         2.5535   -0.8721   -4.8040 O.co2     1 ACP         0.3195
     11 O2A         3.5312   -3.2219   -4.1438 O.co2     1 ACP         0.3195
     12 O3A         1.1027   -2.6171   -3.6342 O.3       1 ACP         0.4672
     13 O5'         2.9202   -1.4821   -2.3524 O.3       1 ACP         0.1618
     14 C5'         2.2816   -0.2918   -1.9206 C.3       1 ACP         0.1504
     15 C4'         2.7248    0.0226   -0.4980 C.3       1 ACP         0.1111
     16 O4'         2.4697    1.4219   -0.2462 O.3       1 ACP        -0.1436
     17 C3'         1.9404   -0.7419    0.5596 C.3       1 ACP         0.1111
     18 O3'         2.7418   -0.8086    1.7389 O.3       1 ACP        -0.2728
     19 C2'         0.7477    0.1630    0.7858 C.3       1 ACP         0.1111
     20 O2'         0.1373   -0.0577    2.0407 O.3       1 ACP        -0.2728
     21 C1'         1.3733    1.5427    0.6747 C.3       1 ACP         0.2693
     22 N9          0.4520    2.5240    0.1767 N.pl3     1 ACP        -0.3222
     23 C8         -0.7463    2.2774   -0.7501 C.ar      1 ACP         0.1640
     24 N7         -1.3714    3.4419   -0.9948 N.2       1 ACP        -0.1640
     25 C5         -0.6104    4.3223   -0.2723 C.ar      1 ACP         0.0820
     26 C6         -0.9062    5.7820   -0.2194 C.ar      1 ACP         0.1640
     27 N6         -1.9385    6.2713   -0.8881 N.pl3     1 ACP        -0.4916
     28 N1         -0.0613    6.4906    0.5336 N.pl3     1 ACP        -0.4390
     29 C2          1.0416    5.8662    1.2291 C.ar      1 ACP         0.5691
     30 N3          1.3146    4.5989    1.1954 N.ar      1 ACP        -0.4283
     31 C4          0.4541    3.8697    0.4273 C.ar      1 ACP         0.2226
     32 HOG3       -4.1158   -1.8969   -1.7410 H         1 ACP         0.2010
     33 H3B1       -2.2352   -3.7766   -4.1805 H         1 ACP        -0.0393
     34 H3B2       -1.2048   -4.0728   -2.7772 H         1 ACP        -0.0393
     35 H5'1        2.5581    0.5235   -2.5966 H         1 ACP        -0.0393
     36 H5'2        1.1974   -0.4370   -1.9607 H         1 ACP        -0.0393
     37 H4'         3.8046   -0.1390   -0.4011 H         1 ACP        -0.0393
     38 H3'         1.6787   -1.7627    0.2719 H         1 ACP        -0.0393
     39 HO3'        2.2231   -1.2979    2.3952 H         1 ACP         0.2010
     40 H2'         0.0002   -0.0084   -0.0014 H         1 ACP        -0.0393
     41 HO2'       -0.6132    0.5577    2.1063 H         1 ACP         0.2010
     42 H1'         1.7718    1.9211    1.6015 H         1 ACP        -0.0393
     43 H8         -1.1244    1.3534   -1.1987 H         1 ACP         0.0000
     44 HN61       -2.5259    5.6573   -1.4336 H         1 ACP         0.2048
     45 HN62       -2.1416    7.2600   -0.8539 H         1 ACP         0.2048
     46 H2          1.6509    6.5764    1.8088 H         1 ACP        -0.1292
     47 H47        -0.2190    7.4917    0.6033 H         1 ACP         0.2048
@<TRIPOS>BOND
     1    1    2 2
     2    1    3 1
     3    1    4 1
     4    1    8 1
     5    4   32 1
     6    5    6 2
     7    5    7 1
     8    5    8 1
     9    5   12 1
    10    8   33 1
    11    8   34 1
    12    9   10 2
    13    9   11 1
    14    9   12 1
    15    9   13 1
    16   13   14 1
    17   14   15 1
    18   14   35 1
    19   14   36 1
    20   15   16 1
    21   15   17 1
    22   15   37 1
    23   16   21 1
    24   17   18 1
    25   17   19 1
    26   17   38 1
    27   18   39 1
    28   19   20 1
    29   19   21 1
    30   19   40 1
    31   20   41 1
    32   21   22 1
    33   21   42 1
    34   22   23 ar
    35   22   31 ar
    36   23   24 ar
    37   23   43 1
    38   24   25 ar
    39   25   26 ar
    40   25   31 ar
    41   26   27 1
    42   26   28 ar
    43   27   44 1
    44   27   45 1
    45   28   29 ar
    46   28   47 1
    47   29   30 ar
    48   29   46 1
    49   30   31 ar
@<TRIPOS>SUBSTRUCTURE
     1 ACP         1 GROUP 0 A     ****
@<TRIPOS>MOLECULE
[[5-(6-amino-1,8-dihydropurine-6,8-diylium-7-id-9-yl)-3,4-dihydroxy-tetrahydrofuran-2-yl]methoxy-oxido-phosphoryl]oxy-[[hydroxy(oxido)phosphoryl]methyl]phosphinate
   47    49     1     0     0
SMALL
USER_CHARGES

@<TRIPOS>ATOM
      1 PG          1.9607   -4.1618   -5.0939 P.3       1 ACP        -1.2804
      2 O1G         0.9125   -4.6357   -6.0735 O.co2     1 ACP         0.3195
      3 O2G         1.6033   -3.3819   -3.8496 O.co2     1 ACP         0.3195
      4 O3G         2.9281   -5.4108   -4.6891 O.3       1 ACP         0.0326
      5 PB          4.6694   -2.3695   -5.2537 P.3       1 ACP        -1.2804
      6 O1B         5.4265   -1.6480   -6.3441 O.co2     1 ACP         0.3195
      7 O2B         5.3234   -3.4092   -4.3731 O.co2     1 ACP         0.3195
      8 C3B         3.1950   -3.1617   -6.0364 C.3       1 ACP         0.8942
      9 PA          4.4357   -0.0473   -3.4208 P.3       1 ACP        -1.1062
     10 O1A         5.0077    1.0009   -4.3502 O.co2     1 ACP         0.3195
     11 O2A         5.2684   -0.6124   -2.2904 O.co2     1 ACP         0.3195
     12 O3A         3.8786   -1.2888   -4.3238 O.3       1 ACP         0.4672
     13 O5'         3.0198    0.5138   -2.8245 O.3       1 ACP         0.1618
     14 C5'         2.2816   -0.2918   -1.9206 C.3       1 ACP         0.1504
     15 C4'         2.7248    0.0226   -0.4980 C.3       1 ACP         0.1111
     16 O4'         2.4697    1.4219   -0.2462 O.3       1 ACP        -0.1436
     17 C3'         1.9404   -0.7419    0.5596 C.3       1 ACP         0.1111
     18 O3'         2.7418   -0.8086    1.7389 O.3       1 ACP        -0.2728
     19 C2'         0.7477    0.1630    0.7858 C.3       1 ACP         0.1111
     20 O2'         0.1373   -0.0577    2.0407 O.3       1 ACP        -0.2728
     21 C1'         1.3733    1.5427    0.6747 C.3       1 ACP         0.2693
     22 N9          0.4520    2.5240    0.1767 N.pl3     1 ACP        -0.3222
     23 C8         -0.7463    2.2774   -0.7501 C.ar      1 ACP         0.1640
     24 N7         -1.3714    3.4419   -0.9948 N.2       1 ACP        -0.1640
     25 C5         -0.6104    4.3223   -0.2723 C.ar      1 ACP         0.0820
     26 C6         -0.9062    5.7820   -0.2194 C.ar      1 ACP         0.1640
     27 N6         -1.9385    6.2713   -0.8881 N.pl3     1 ACP        -0.4916
     28 N1         -0.0613    6.4906    0.5336 N.pl3     1 ACP        -0.4390
     29 C2          1.0416    5.8662    1.2291 C.ar      1 ACP         0.5691
     30 N3          1.3146    4.5989    1.1954 N.ar      1 ACP        -0.4283
     31 C4          0.4541    3.8697    0.4273 C.ar      1 ACP         0.2226
     32 HOG3        2.5239   -6.1969   -4.2638 H         1 ACP         0.2010
     33 H3B1        2.6287   -2.3569   -6.5183 H         1 ACP        -0.0393
     34 H3B2        3.5827   -3.8098   -6.8301 H         1 ACP        -0.0393
     35 H5'1        1.2153   -0.0781   -2.0454 H         1 ACP        -0.0393
     36 H5'2        2.4645   -1.3454   -2.1547 H         1 ACP        -0.0393
     37 H4'         3.8046   -0.1390   -0.4011 H         1 ACP        -0.0393
     38 H3'         1.6787   -1.7627    0.2719 H         1 ACP        -0.0393
     39 HO3'        2.2231   -1.2979    2.3952 H         1 ACP         0.2010
     40 H2'         0.0002   -0.0084   -0.0014 H         1 ACP        -0.0393
     41 HO2'       -0.1554   -0.9852    2.0577 H         1 ACP         0.2010
     42 H1'         1.7718    1.9211    1.6015 H         1 ACP        -0.0393
     43 H8         -1.1244    1.3534   -1.1987 H         1 ACP         0.0000
     44 HN61       -2.5259    5.6573   -1.4336 H         1 ACP         0.2048
     45 HN62       -2.1416    7.2600   -0.8539 H         1 ACP         0.2048
     46 H2          1.6509    6.5764    1.8088 H         1 ACP        -0.1292
     47 H47        -0.2190    7.4917    0.6033 H         1 ACP         0.2048
@<TRIPOS>BOND
     1    1    2 2
     2    1    3 1
     3    1    4 1
     4    1    8 1
     5    4   32 1
     6    5    6 2
     7    5    7 1
     8    5    8 1
     9    5   12 1
    10    8   33 1
    11    8   34 1
    12    9   10 2
    13    9   11 1
    14    9   12 1
    15    9   13 1
    16   13   14 1
    17   14   15 1
    18   14   35 1
    19   14   36 1
    20   15   16 1
    21   15   17 1
    22   15   37 1
    23   16   21 1
    24   17   18 1
    25   17   19 1
    26   17   38 1
    27   18   39 1
    28   19   20 1
    29   19   21 1
    30   19   40 1
    31   20   41 1
    32   21   22 1
    33   21   42 1
    34   22   23 ar
    35   22   31 ar
    36   23   24 ar
    37   23   43 1
    38   24   25 ar
    39   25   26 ar
    40   25   31 ar
    41   26   27 1
    42   26   28 ar
    43   27   44 1
    44   27   45 1
    45   28   29 ar
    46   28   47 1
    47   29   30 ar
    48   29   46 1
    49   30   31 ar
@<TRIPOS>SUBSTRUCTURE
     1 ACP         1 GROUP 0 A     ****
@<TRIPOS>MOLECULE
[[5-(6-amino-1,8-dihydropurine-6,8-diylium-7-id-9-yl)-3,4-dihydroxy-tetrahydrofuran-2-yl]methoxy-oxido-phosphoryl]oxy-[[hydroxy(oxido)phosphoryl]methyl]phosphinate
   47    49     1     0     0
SMALL
USER_CHARGES

@<TRIPOS>ATOM
      1 PG          5.9947    1.5527   -3.9419 P.3       1 ACP        -1.2804
      2 O1G         4.6896    1.5301   -4.7028 O.co2     1 ACP         0.3195
      3 O2G         7.1459    2.4440   -4.3475 O.co2     1 ACP         0.3195
      4 O3G         5.6915    1.7522   -2.3519 O.3       1 ACP         0.0326
      5 PB          5.7071   -1.5745   -3.0977 P.3       1 ACP        -1.2804
      6 O1B         5.4960   -1.2202   -1.6442 O.co2     1 ACP         0.3195
      7 O2B         6.3847   -2.8569   -3.5227 O.co2     1 ACP         0.3195
      8 C3B         6.6340   -0.1791   -3.8773 C.3       1 ACP         0.8942
      9 PA          2.8591   -2.1299   -3.7201 P.3       1 ACP        -1.1062
     10 O1A         3.0727   -3.6280   -3.7234 O.co2     1 ACP         0.3195
     11 O2A         1.8686   -1.4903   -4.6689 O.co2     1 ACP         0.3195
     12 O3A         4.3077   -1.4018   -3.9162 O.3       1 ACP         0.4672
     13 O5'         2.5237   -1.6631   -2.1889 O.3       1 ACP         0.1618
     14 C5'         2.2816   -0.2918   -1.9206 C.3       1 ACP         0.1504
     15 C4'         2.7248    0.0226   -0.4980 C.3       1 ACP         0.1111
     16 O4'         2.4697    1.4219   -0.2462 O.3       1 ACP        -0.1436
     17 C3'         1.9404   -0.7419    0.5596 C.3       1 ACP         0.1111
     18 O3'         2.7418   -0.8086    1.7389 O.3       1 ACP        -0.2728
     19 C2'         0.7477    0.1630    0.7858 C.3       1 ACP         0.1111
     20 O2'         0.1373   -0.0577    2.0407 O.3       1 ACP        -0.2728
     21 C1'         1.3733    1.5427    0.6747 C.3       1 ACP         0.2693
     22 N9          0.4520    2.5240    0.1767 N.pl3     1 ACP        -0.3222
     23 C8         -0.7463    2.2774   -0.7501 C.ar      1 ACP         0.1640
     24 N7         -1.3714    3.4419   -0.9948 N.2       1 ACP        -0.1640
     25 C5         -0.6104    4.3223   -0.2723 C.ar      1 ACP         0.0820
     26 C6         -0.9062    5.7820   -0.2194 C.ar      1 ACP         0.1640
     27 N6         -1.9385    6.2713   -0.8881 N.pl3     1 ACP        -0.4916
     28 N1         -0.0613    6.4906    0.5336 N.pl3     1 ACP        -0.4390
     29 C2          1.0416    5.8662    1.2291 C.ar      1 ACP         0.5691
     30 N3          1.3146    4.5989    1.1954 N.ar      1 ACP        -0.4283
     31 C4          0.4541    3.8697    0.4273 C.ar      1 ACP         0.2226
     32 HOG3        5.2187    2.5619   -2.0638 H         1 ACP         0.2010
     33 H3B1        7.6025   -0.1260   -3.3677 H         1 ACP        -0.0393
     34 H3B2        6.8251   -0.4812   -4.9130 H         1 ACP        -0.0393
     35 H5'1        2.8429    0.3140   -2.6391 H         1 ACP        -0.0393
     36 H5'2        1.2125   -0.0906   -2.0420 H         1 ACP        -0.0393
     37 H4'         3.8046   -0.1390   -0.4011 H         1 ACP        -0.0393
     38 H3'         1.6787   -1.7627    0.2719 H         1 ACP        -0.0393
     39 HO3'        3.5553   -1.2733    1.4913 H         1 ACP         0.2010
     40 H2'         0.0002   -0.0084   -0.0014 H         1 ACP        -0.0393
     41 HO2'       -0.6132    0.5577    2.1063 H         1 ACP         0.2010
     42 H1'         1.7718    1.9211    1.6015 H         1 ACP        -0.0393
     43 H8         -1.1244    1.3534   -1.1987 H         1 ACP         0.0000
     44 HN61       -2.5259    5.6573   -1.4336 H         1 ACP         0.2048
     45 HN62       -2.1416    7.2600   -0.8539 H         1 ACP         0.2048
     46 H2          1.6509    6.5764    1.8088 H         1 ACP        -0.1292
     47 H47        -0.2190    7.4917    0.6033 H         1 ACP         0.2048
@<TRIPOS>BOND
     1    1    2 2
     2    1    3 1
     3    1    4 1
     4    1    8 1
     5    4   32 1
     6    5    6 2
     7    5    7 1
     8    5    8 1
     9    5   12 1
    10    8   33 1
    11    8   34 1
    12    9   10 2
    13    9   11 1
    14    9   12 1
    15    9   13 1
    16   13   14 1
    17   14   15 1
    18   14   35 1
    19   14   36 1
    20   15   16 1
    21   15   17 1
    22   15   37 1
    23   16   21 1
    24   17   18 1
    25   17   19 1
    26   17   38 1
    27   18   39 1
    28   19   20 1
    29   19   21 1
    30   19   40 1
    31   20   41 1
    32   21   22 1
    33   21   42 1
    34   22   23 ar
    35   22   31 ar
    36   23   24 ar
    37   23   43 1
    38   24   25 ar
    39   25   26 ar
    40   25   31 ar
    41   26   27 1
    42   26   28 ar
    43   27   44 1
    44   27   45 1
    45   28   29 ar
    46   28   47 1
    47   29   30 ar
    48   29   46 1
    49   30   31 ar
@<TRIPOS>SUBSTRUCTURE
     1 ACP         1 GROUP 0 A     ****
@<TRIPOS>MOLECULE
[[5-(6-amino-1,8-dihydropurine-6,8-diylium-7-id-9-yl)-3,4-dihydroxy-tetrahydrofuran-2-yl]methoxy-oxido-phosphoryl]oxy-[[hydroxy(oxido)phosphoryl]methyl]phosphinate
   47    49     1     0     0
SMALL
USER_CHARGES

@<TRIPOS>ATOM
      1 PG          2.3614   -4.5749   -3.6305 P.3       1 ACP        -1.2804
      2 O1G         2.7338   -3.4244   -4.5362 O.co2     1 ACP         0.3195
      3 O2G         2.7067   -6.0072   -3.9675 O.co2     1 ACP         0.3195
      4 O3G         2.8475   -4.2460   -2.1088 O.3       1 ACP         0.0326
      5 PB         -0.3111   -3.0508   -2.5767 P.3       1 ACP        -1.2804
      6 O1B         0.2672   -2.8766   -1.1918 O.co2     1 ACP         0.3195
      7 O2B        -1.7942   -3.2196   -2.8136 O.co2     1 ACP         0.3195
      8 C3B         0.5370   -4.4983   -3.3511 C.3       1 ACP         0.8942
      9 PA          0.1597   -0.2651   -3.4849 P.3       1 ACP        -1.1062
     10 O1A        -1.2995    0.1091   -3.3420 O.co2     1 ACP         0.3195
     11 O2A         1.0029    0.3283   -4.5928 O.co2     1 ACP         0.3195
     12 O3A         0.2694   -1.8925   -3.5663 O.3       1 ACP         0.4672
     13 O5'         0.8970   -0.0132   -2.0468 O.3       1 ACP         0.1618
     14 C5'         2.2816   -0.2918   -1.9206 C.3       1 ACP         0.1504
     15 C4'         2.7248    0.0226   -0.4980 C.3       1 ACP         0.1111
     16 O4'         2.4697    1.4219   -0.2462 O.3       1 ACP        -0.1436
     17 C3'         1.9404   -0.7419    0.5596 C.3       1 ACP         0.1111
     18 O3'         2.7418   -0.8086    1.7389 O.3       1 ACP        -0.2728
     19 C2'         0.7477    0.1630    0.7858 C.3       1 ACP         0.1111
     20 O2'         0.1373   -0.0577    2.0407 O.3       1 ACP        -0.2728
     21 C1'         1.3733    1.5427    0.6747 C.3       1 ACP         0.2693
     22 N9          0.4520    2.5240    0.1767 N.pl3     1 ACP        -0.3222
     23 C8          0.1798    2.8712   -1.2933 C.ar      1 ACP         0.1640
     24 N7         -0.7494    3.8400   -1.3610 N.2       1 ACP        -0.1640
     25 C5         -1.0173    4.0603   -0.0358 C.ar      1 ACP         0.0820
     26 C6         -2.0105    5.0717    0.4241 C.ar      1 ACP         0.1640
     27 N6         -2.6723    5.7982   -0.4628 N.pl3     1 ACP        -0.4916
     28 N1         -2.1445    5.1522    1.7502 N.pl3     1 ACP        -0.4390
     29 C2         -1.3755    4.3143    2.6426 C.ar      1 ACP         0.5691
     30 N3         -0.5075    3.4292    2.2616 N.ar      1 ACP        -0.4283
     31 C4         -0.3667    3.3425    0.9070 C.ar      1 ACP         0.2226
     32 HOG3        3.8030   -4.0965   -1.9450 H         1 ACP         0.2010
     33 H3B1        0.2875   -5.3703   -2.7365 H         1 ACP        -0.0393
     34 H3B2        0.0642   -4.6409   -4.3292 H         1 ACP        -0.0393
     35 H5'1        2.4525   -1.3484   -2.1500 H         1 ACP        -0.0393
     36 H5'2        2.8335    0.3232   -2.6384 H         1 ACP        -0.0393
     37 H4'         3.8046   -0.1390   -0.4011 H         1 ACP        -0.0393
     38 H3'         1.6787   -1.7627    0.2719 H         1 ACP        -0.0393
     39 HO3'        2.2231   -1.2979    2.3952 H         1 ACP         0.2010
     40 H2'         0.0002   -0.0084   -0.0014 H         1 ACP        -0.0393
     41 HO2'       -0.6132    0.5577    2.1063 H         1 ACP         0.2010
     42 H1'         1.7718    1.9211    1.6015 H         1 ACP        -0.0393
     43 H8          0.6089    2.4651   -2.2147 H         1 ACP         0.0000
     44 HN61       -2.5055    5.6680   -1.4503 H         1 ACP         0.2048
     45 HN62       -3.3462    6.4841   -0.1542 H         1 ACP         0.2048
     46 H2         -1.5932    4.4937    3.7066 H         1 ACP        -0.1292
     47 H47        -2.8098    5.8270    2.1160 H         1 ACP         0.2048
@<TRIPOS>BOND
     1    1    2 2
     2    1    3 1
     3    1    4 1
     4    1    8 1
     5    4   32 1
     6    5    6 2
     7    5    7 1
     8    5    8 1
     9    5   12 1
    10    8   33 1
    11    8   34 1
    12    9   10 2
    13    9   11 1
    14    9   12 1
    15    9   13 1
    16   13   14 1
    17   14   15 1
    18   14   35 1
    19   14   36 1
    20   15   16 1
    21   15   17 1
    22   15   37 1
    23   16   21 1
    24   17   18 1
    25   17   19 1
    26   17   38 1
    27   18   39 1
    28   19   20 1
    29   19   21 1
    30   19   40 1
    31   20   41 1
    32   21   22 1
    33   21   42 1
    34   22   23 ar
    35   22   31 ar
    36   23   24 ar
    37   23   43 1
    38   24   25 ar
    39   25   26 ar
    40   25   31 ar
    41   26   27 1
    42   26   28 ar
    43   27   44 1
    44   27   45 1
    45   28   29 ar
    46   28   47 1
    47   29   30 ar
    48   29   46 1
    49   30   31 ar
@<TRIPOS>SUBSTRUCTURE
     1 ACP         1 GROUP 0 A     ****
@<TRIPOS>MOLECULE
[[5-(6-amino-1,8-dihydropurine-6,8-diylium-7-id-9-yl)-3,4-dihydroxy-tetrahydrofuran-2-yl]methoxy-oxido-phosphoryl]oxy-[[hydroxy(oxido)phosphoryl]methyl]phosphinate
   47    49     1     0     0
SMALL
USER_CHARGES

@<TRIPOS>ATOM
      1 PG         -2.3103   -0.4650   -3.0136 P.3       1 ACP        -1.2804
      2 O1G        -1.1563   -0.1741   -2.0827 O.co2     1 ACP         0.3195
      3 O2G        -3.7499   -0.2960   -2.5859 O.co2     1 ACP         0.3195
      4 O3G        -2.0730    0.3094   -4.4292 O.3       1 ACP         0.0326
      5 PB         -0.6408   -2.7814   -4.5701 P.3       1 ACP        -1.2804
      6 O1B        -0.5592   -1.9529   -5.8309 O.co2     1 ACP         0.3195
      7 O2B        -0.6954   -4.2915   -4.6021 O.co2     1 ACP         0.3195
      8 C3B        -2.1151   -2.1986   -3.6208 C.3       1 ACP         0.8942
      9 PA          2.1362   -2.2698   -3.6575 P.3       1 ACP        -1.1062
     10 O1A         2.5073   -1.2450   -4.7072 O.co2     1 ACP         0.3195
     11 O2A         2.6360   -3.6946   -3.7605 O.co2     1 ACP         0.3195
     12 O3A         0.5093   -2.3009   -3.5192 O.3       1 ACP         0.4672
     13 O5'         2.5237   -1.6631   -2.1889 O.3       1 ACP         0.1618
     14 C5'         2.2816   -0.2918   -1.9206 C.3       1 ACP         0.1504
     15 C4'         2.7248    0.0226   -0.4980 C.3       1 ACP         0.1111
     16 O4'         2.4697    1.4219   -0.2462 O.3       1 ACP        -0.1436
     17 C3'         1.9404   -0.7419    0.5596 C.3       1 ACP         0.1111
     18 O3'         2.7418   -0.8086    1.7389 O.3       1 ACP        -0.2728
     19 C2'         0.7477    0.1630    0.7858 C.3       1 ACP         0.1111
     20 O2'         0.1373   -0.0577    2.0407 O.3       1 ACP        -0.2728
     21 C1'         1.3733    1.5427    0.6747 C.3       1 ACP         0.2693
     22 N9          0.4520    2.5240    0.1767 N.pl3     1 ACP        -0.3222
     23 C8         -1.0660    2.5608    0.3999 C.ar      1 ACP         0.1640
     24 N7         -1.5852    3.6333   -0.2221 N.2       1 ACP        -0.1640
     25 C5         -0.4682    4.1996   -0.7771 C.ar      1 ACP         0.0820
     26 C6         -0.5216    5.4476   -1.5899 C.ar      1 ACP         0.1640
     27 N6         -1.6813    6.0510   -1.7982 N.pl3     1 ACP        -0.4916
     28 N1          0.6621    5.8575   -2.0523 N.pl3     1 ACP        -0.4390
     29 C2          1.8795    5.1301   -1.7717 C.ar      1 ACP         0.5691
     30 N3          1.9458    4.0434   -1.0670 N.ar      1 ACP        -0.4283
     31 C4          0.7388    3.6199   -0.5917 C.ar      1 ACP         0.2226
     32 HOG3       -1.9976    1.2873   -4.4205 H         1 ACP         0.2010
     33 H3B1       -2.9893   -2.3998   -4.2498 H         1 ACP        -0.0393
     34 H3B2       -2.1877   -2.8484   -2.7417 H         1 ACP        -0.0393
     35 H5'1        2.8429    0.3140   -2.6391 H         1 ACP        -0.0393
     36 H5'2        1.2125   -0.0906   -2.0420 H         1 ACP        -0.0393
     37 H4'         3.8046   -0.1390   -0.4011 H         1 ACP        -0.0393
     38 H3'         1.6787   -1.7627    0.2719 H         1 ACP        -0.0393
     39 HO3'        2.2231   -1.2979    2.3952 H         1 ACP         0.2010
     40 H2'         0.0002   -0.0084   -0.0014 H         1 ACP        -0.0393
     41 HO2'       -0.1554   -0.9852    2.0577 H         1 ACP         0.2010
     42 H1'         1.7718    1.9211    1.6015 H         1 ACP        -0.0393
     43 H8         -1.7235    1.8833    0.9537 H         1 ACP         0.0000
     44 HN61       -2.5296    5.6672   -1.4072 H         1 ACP         0.2048
     45 HN62       -1.7205    6.8969   -2.3483 H         1 ACP         0.2048
     46 H2          2.7750    5.5878   -2.2190 H         1 ACP        -0.1292
     47 H47         0.6808    6.7046   -2.6128 H         1 ACP         0.2048
@<TRIPOS>BOND
     1    1    2 2
     2    1    3 1
     3    1    4 1
     4    1    8 1
     5    4   32 1
     6    5    6 2
     7    5    7 1
     8    5    8 1
     9    5   12 1
    10    8   33 1
    11    8   34 1
    12    9   10 2
    13    9   11 1
    14    9   12 1
    15    9   13 1
    16   13   14 1
    17   14   15 1
    18   14   35 1
    19   14   36 1
    20   15   16 1
    21   15   17 1
    22   15   37 1
    23   16   21 1
    24   17   18 1
    25   17   19 1
    26   17   38 1
    27   18   39 1
    28   19   20 1
    29   19   21 1
    30   19   40 1
    31   20   41 1
    32   21   22 1
    33   21   42 1
    34   22   23 ar
    35   22   31 ar
    36   23   24 ar
    37   23   43 1
    38   24   25 ar
    39   25   26 ar
    40   25   31 ar
    41   26   27 1
    42   26   28 ar
    43   27   44 1
    44   27   45 1
    45   28   29 ar
    46   28   47 1
    47   29   30 ar
    48   29   46 1
    49   30   31 ar
@<TRIPOS>SUBSTRUCTURE
     1 ACP         1 GROUP 0 A     ****
@<TRIPOS>MOLECULE
[[5-(6-amino-1,8-dihydropurine-6,8-diylium-7-id-9-yl)-3,4-dihydroxy-tetrahydrofuran-2-yl]methoxy-oxido-phosphoryl]oxy-[[hydroxy(oxido)phosphoryl]methyl]phosphinate
   47    49     1     0     0
SMALL
USER_CHARGES

@<TRIPOS>ATOM
      1 PG          1.0320   -4.2335   -3.9643 P.3       1 ACP        -1.2804
      2 O1G         0.5594   -5.6156   -4.3506 O.co2     1 ACP         0.3195
      3 O2G         0.0839   -3.1742   -3.4515 O.co2     1 ACP         0.3195
      4 O3G         2.3017   -4.3593   -2.9484 O.3       1 ACP         0.0326
      5 PB          2.6814   -1.8362   -5.4163 P.3       1 ACP        -1.2804
      6 O1B         1.5741   -0.8418   -5.1559 O.co2     1 ACP         0.3195
      7 O2B         3.5747   -1.7453   -6.6320 O.co2     1 ACP         0.3195
      8 C3B         1.9219   -3.5207   -5.4177 C.3       1 ACP         0.8942
      9 PA          4.4771   -0.9086   -3.2433 P.3       1 ACP        -1.1062
     10 O1A         5.4067   -0.2050   -4.2080 O.co2     1 ACP         0.3195
     11 O2A         5.0200   -1.5784   -1.9995 O.co2     1 ACP         0.3195
     12 O3A         3.5986   -2.0028   -4.0787 O.3       1 ACP         0.4672
     13 O5'         3.2883    0.1336   -2.8242 O.3       1 ACP         0.1618
     14 C5'         2.2816   -0.2918   -1.9206 C.3       1 ACP         0.1504
     15 C4'         2.7248    0.0226   -0.4980 C.3       1 ACP         0.1111
     16 O4'         2.4697    1.4219   -0.2462 O.3       1 ACP        -0.1436
     17 C3'         1.9404   -0.7419    0.5596 C.3       1 ACP         0.1111
     18 O3'         2.7418   -0.8086    1.7389 O.3       1 ACP        -0.2728
     19 C2'         0.7477    0.1630    0.7858 C.3       1 ACP         0.1111
     20 O2'         0.1373   -0.0577    2.0407 O.3       1 ACP        -0.2728
     21 C1'         1.3733    1.5427    0.6747 C.3       1 ACP         0.2693
     22 N9          0.4520    2.5240    0.1767 N.pl3     1 ACP        -0.3222
     23 C8         -1.0247    2.3053   -0.1800 C.ar      1 ACP         0.1640
     24 N7         -1.5580    3.4612   -0.6116 N.2       1 ACP        -0.1640
     25 C5         -0.4873    4.3110   -0.5222 C.ar      1 ACP         0.0820
     26 C6         -0.5728    5.7505   -0.8981 C.ar      1 ACP         0.1640
     27 N6         -1.7163    6.2514   -1.3385 N.pl3     1 ACP        -0.4916
     28 N1          0.5667    6.4301   -0.7475 N.pl3     1 ACP        -0.4390
     29 C2          1.7697    5.7952   -0.2579 C.ar      1 ACP         0.5691
     30 N3          1.8633    4.5450    0.0742 N.ar      1 ACP        -0.4283
     31 C4          0.7014    3.8457   -0.0776 C.ar      1 ACP         0.2226
     32 HOG3        2.1743   -4.8285   -2.0964 H         1 ACP         0.2010
     33 H3B1        1.2084   -3.5393   -6.2490 H         1 ACP        -0.0393
     34 H3B2        2.7296   -4.2189   -5.6637 H         1 ACP        -0.0393
     35 H5'1        1.3500    0.2325   -2.1560 H         1 ACP        -0.0393
     36 H5'2        2.1267   -1.3683   -2.0444 H         1 ACP        -0.0393
     37 H4'         3.8046   -0.1390   -0.4011 H         1 ACP        -0.0393
     38 H3'         1.6787   -1.7627    0.2719 H         1 ACP        -0.0393
     39 HO3'        3.5553   -1.2733    1.4913 H         1 ACP         0.2010
     40 H2'         0.0002   -0.0084   -0.0014 H         1 ACP        -0.0393
     41 HO2'       -0.6132    0.5577    2.1063 H         1 ACP         0.2010
     42 H1'         1.7718    1.9211    1.6015 H         1 ACP        -0.0393
     43 H8         -1.6458    1.4054   -0.1318 H         1 ACP         0.0000
     44 HN61       -2.5307    5.6598   -1.4199 H         1 ACP         0.2048
     45 HN62       -1.7773    7.2266   -1.5938 H         1 ACP         0.2048
     46 H2          2.6279    6.4808   -0.1872 H         1 ACP        -0.1292
     47 H47         0.5621    7.4166   -0.9900 H         1 ACP         0.2048
@<TRIPOS>BOND
     1    1    2 2
     2    1    3 1
     3    1    4 1
     4    1    8 1
     5    4   32 1
     6    5    6 2
     7    5    7 1
     8    5    8 1
     9    5   12 1
    10    8   33 1
    11    8   34 1
    12    9   10 2
    13    9   11 1
    14    9   12 1
    15    9   13 1
    16   13   14 1
    17   14   15 1
    18   14   35 1
    19   14   36 1
    20   15   16 1
    21   15   17 1
    22   15   37 1
    23   16   21 1
    24   17   18 1
    25   17   19 1
    26   17   38 1
    27   18   39 1
    28   19   20 1
    29   19   21 1
    30   19   40 1
    31   20   41 1
    32   21   22 1
    33   21   42 1
    34   22   23 ar
    35   22   31 ar
    36   23   24 ar
    37   23   43 1
    38   24   25 ar
    39   25   26 ar
    40   25   31 ar
    41   26   27 1
    42   26   28 ar
    43   27   44 1
    44   27   45 1
    45   28   29 ar
    46   28   47 1
    47   29   30 ar
    48   29   46 1
    49   30   31 ar
@<TRIPOS>SUBSTRUCTURE
     1 ACP         1 GROUP 0 A     ****
@<TRIPOS>MOLECULE
[[5-(6-amino-1,8-dihydropurine-6,8-diylium-7-id-9-yl)-3,4-dihydroxy-tetrahydrofuran-2-yl]methoxy-oxido-phosphoryl]oxy-[[hydroxy(oxido)phosphoryl]methyl]phosphinate
   47    49     1     0     0
SMALL
USER_CHARGES

@<TRIPOS>ATOM
      1 PG          1.9235   -1.2778   -7.1863 P.3       1 ACP        -1.2804
      2 O1G         1.9559   -0.2479   -8.2913 O.co2     1 ACP         0.3195
      3 O2G         2.3211   -2.7174   -7.4177 O.co2     1 ACP         0.3195
      4 O3G         2.7183   -0.7007   -5.8843 O.3       1 ACP         0.0326
      5 PB         -0.3016   -2.3895   -5.0915 P.3       1 ACP        -1.2804
      6 O1B        -0.1046   -3.8147   -5.5528 O.co2     1 ACP         0.3195
      7 O2B        -1.6341   -1.8839   -4.5885 O.co2     1 ACP         0.3195
      8 C3B         0.2176   -1.2836   -6.4776 C.3       1 ACP         0.8942
      9 PA          1.2676   -2.6330   -2.5845 P.3       1 ACP        -1.1062
     10 O1A         1.8014   -4.0298   -2.8163 O.co2     1 ACP         0.3195
     11 O2A         0.1253   -2.3943   -1.6209 O.co2     1 ACP         0.3195
     12 O3A         0.8686   -1.9867   -4.0302 O.3       1 ACP         0.4672
     13 O5'         2.5237   -1.6631   -2.1889 O.3       1 ACP         0.1618
     14 C5'         2.2816   -0.2918   -1.9206 C.3       1 ACP         0.1504
     15 C4'         2.7248    0.0226   -0.4980 C.3       1 ACP         0.1111
     16 O4'         2.4697    1.4219   -0.2462 O.3       1 ACP        -0.1436
     17 C3'         1.9404   -0.7419    0.5596 C.3       1 ACP         0.1111
     18 O3'         2.7418   -0.8086    1.7389 O.3       1 ACP        -0.2728
     19 C2'         0.7477    0.1630    0.7858 C.3       1 ACP         0.1111
     20 O2'         0.1373   -0.0577    2.0407 O.3       1 ACP        -0.2728
     21 C1'         1.3733    1.5427    0.6747 C.3       1 ACP         0.2693
     22 N9          0.4520    2.5240    0.1767 N.pl3     1 ACP        -0.3222
     23 C8         -1.0660    2.5608    0.3999 C.ar      1 ACP         0.1640
     24 N7         -1.5852    3.6333   -0.2221 N.2       1 ACP        -0.1640
     25 C5         -0.4682    4.1996   -0.7771 C.ar      1 ACP         0.0820
     26 C6         -0.5216    5.4476   -1.5899 C.ar      1 ACP         0.1640
     27 N6         -1.6813    6.0510   -1.7982 N.pl3     1 ACP        -0.4916
     28 N1          0.6621    5.8575   -2.0523 N.pl3     1 ACP        -0.4390
     29 C2          1.8795    5.1301   -1.7717 C.ar      1 ACP         0.5691
     30 N3          1.9458    4.0434   -1.0670 N.ar      1 ACP        -0.4283
     31 C4          0.7388    3.6199   -0.5917 C.ar      1 ACP         0.2226
     32 HOG3        3.6657   -0.4656   -5.9809 H         1 ACP         0.2010
     33 H3B1       -0.4575   -1.4956   -7.3141 H         1 ACP        -0.0393
     34 H3B2        0.0138   -0.2602   -6.1436 H         1 ACP        -0.0393
     35 H5'1        2.8429    0.3140   -2.6391 H         1 ACP        -0.0393
     36 H5'2        1.2125   -0.0906   -2.0420 H         1 ACP        -0.0393
     37 H4'         3.8046   -0.1390   -0.4011 H         1 ACP        -0.0393
     38 H3'         1.6787   -1.7627    0.2719 H         1 ACP        -0.0393
     39 HO3'        2.2231   -1.2979    2.3952 H         1 ACP         0.2010
     40 H2'         0.0002   -0.0084   -0.0014 H         1 ACP        -0.0393
     41 HO2'       -0.1554   -0.9852    2.0577 H         1 ACP         0.2010
     42 H1'         1.7718    1.9211    1.6015 H         1 ACP        -0.0393
     43 H8         -1.7235    1.8833    0.9537 H         1 ACP         0.0000
     44 HN61       -2.5296    5.6672   -1.4072 H         1 ACP         0.2048
     45 HN62       -1.7205    6.8969   -2.3483 H         1 ACP         0.2048
     46 H2          2.7750    5.5878   -2.2190 H         1 ACP        -0.1292
     47 H47         0.6808    6.7046   -2.6128 H         1 ACP         0.2048
@<TRIPOS>BOND
     1    1    2 2
     2    1    3 1
     3    1    4 1
     4    1    8 1
     5    4   32 1
     6    5    6 2
     7    5    7 1
     8    5    8 1
     9    5   12 1
    10    8   33 1
    11    8   34 1
    12    9   10 2
    13    9   11 1
    14    9   12 1
    15    9   13 1
    16   13   14 1
    17   14   15 1
    18   14   35 1
    19   14   36 1
    20   15   16 1
    21   15   17 1
    22   15   37 1
    23   16   21 1
    24   17   18 1
    25   17   19 1
    26   17   38 1
    27   18   39 1
    28   19   20 1
    29   19   21 1
    30   19   40 1
    31   20   41 1
    32   21   22 1
    33   21   42 1
    34   22   23 ar
    35   22   31 ar
    36   23   24 ar
    37   23   43 1
    38   24   25 ar
    39   25   26 ar
    40   25   31 ar
    41   26   27 1
    42   26   28 ar
    43   27   44 1
    44   27   45 1
    45   28   29 ar
    46   28   47 1
    47   29   30 ar
    48   29   46 1
    49   30   31 ar
@<TRIPOS>SUBSTRUCTURE
     1 ACP         1 GROUP 0 A     ****
@<TRIPOS>MOLECULE
[[5-(6-amino-1,8-dihydropurine-6,8-diylium-7-id-9-yl)-3,4-dihydroxy-tetrahydrofuran-2-yl]methoxy-oxido-phosphoryl]oxy-[[hydroxy(oxido)phosphoryl]methyl]phosphinate
   47    49     1     0     0
SMALL
USER_CHARGES

@<TRIPOS>ATOM
      1 PG         -2.5313   -7.4488    5.8412 P.3       1 ACP        -1.2804
      2 O1G        -1.8024   -7.6161    7.1541 O.co2     1 ACP         0.3195
      3 O2G        -1.8012   -7.3847    4.5194 O.co2     1 ACP         0.3195
      4 O3G        -3.7303   -8.5500    5.7430 O.3       1 ACP         0.0326
      5 PB         -2.8795   -4.2473    6.2928 P.3       1 ACP        -1.2804
      6 O1B        -2.1651   -4.3011    7.6230 O.co2     1 ACP         0.3195
      7 O2B        -3.9763   -3.2469    6.0088 O.co2     1 ACP         0.3195
      8 C3B        -3.5734   -5.9291    5.9702 C.3       1 ACP         0.8942
      9 PA         -0.6036   -3.1462    4.7389 P.3       1 ACP        -1.1062
     10 O1A         0.4415   -3.2242    5.8304 O.co2     1 ACP         0.3195
     11 O2A        -1.2428   -1.8231    4.3766 O.co2     1 ACP         0.3195
     12 O3A        -1.7885   -4.2165    5.0818 O.3       1 ACP         0.4672
     13 O5'         0.0099   -3.8403    3.3910 O.3       1 ACP         0.1618
     14 C5'        -0.7840   -3.8935    2.2172 C.3       1 ACP         0.1504
     15 C4'        -0.0724   -3.1466    1.1027 C.3       1 ACP         0.1111
     16 O4'        -0.8674   -3.1929   -0.0945 O.3       1 ACP        -0.1436
     17 C3'         0.1338   -1.6715    1.4027 C.3       1 ACP         0.1111
     18 O3'         1.2893   -1.4445    2.1808 O.3       1 ACP        -0.2728
     19 C2'         0.2158   -1.0724    0.0128 C.3       1 ACP         0.1111
     20 O2'         1.5141   -1.2448   -0.5513 O.3       1 ACP        -0.2728
     21 C1'        -0.7897   -1.9176   -0.7583 C.3       1 ACP         0.2693
     22 N9         -2.1040   -1.3333   -0.7704 N.pl3     1 ACP        -0.3222
     23 C8         -3.2124   -1.5345    0.2719 C.ar      1 ACP         0.1640
     24 N7         -4.2964   -0.8234   -0.0828 N.2       1 ACP        -0.1640
     25 C5         -3.8754   -0.2386   -1.2478 C.ar      1 ACP         0.0820
     26 C6         -4.7432    0.6719   -2.0470 C.ar      1 ACP         0.1640
     27 N6         -5.9725    0.9415   -1.6366 N.pl3     1 ACP        -0.4916
     28 N1         -4.1703    1.1517   -3.1536 N.pl3     1 ACP        -0.4390
     29 C2         -2.8174    0.7994   -3.5215 C.ar      1 ACP         0.5691
     30 N3         -2.0475    0.0097   -2.8393 N.ar      1 ACP        -0.4283
     31 C4         -2.6278   -0.4836   -1.7071 C.ar      1 ACP         0.2226
     32 HOG3       -3.4956   -9.5017    5.7807 H         1 ACP         0.2010
     33 H3B1       -4.2977   -6.1250    6.7686 H         1 ACP        -0.0393
     34 H3B2       -4.1334   -5.8528    5.0316 H         1 ACP        -0.0393
     35 H5'1       -0.9358   -4.9414    1.9395 H         1 ACP        -0.0393
     36 H5'2       -1.7558   -3.4349    2.4258 H         1 ACP        -0.0393
     37 H4'         0.8883   -3.6447    0.8783 H         1 ACP        -0.0393
     38 H3'        -0.7368   -1.2359    1.9871 H         1 ACP        -0.0393
     39 HO3'        1.3407   -0.4871    2.3218 H         1 ACP         0.2010
     40 H2'        -0.0343   -0.0280    0.0196 H         1 ACP        -0.0393
     41 HO2'        2.1443   -0.7955    0.0378 H         1 ACP         0.2010
     42 H1'        -0.5175   -2.1046   -1.7826 H         1 ACP        -0.0393
     43 H8         -3.2310   -2.1319    1.1889 H         1 ACP         0.0000
     44 HN61       -6.3230    0.5316   -0.7829 H         1 ACP         0.2048
     45 HN62       -6.5628    1.5584   -2.1760 H         1 ACP         0.2048
     46 H2         -2.4822    1.2710   -4.4579 H         1 ACP        -0.1292
     47 H47        -4.7200    1.7780   -3.7346 H         1 ACP         0.2048
@<TRIPOS>BOND
     1    1    2 2
     2    1    3 1
     3    1    4 1
     4    1    8 1
     5    4   32 1
     6    5    6 2
     7    5    7 1
     8    5    8 1
     9    5   12 1
    10    8   33 1
    11    8   34 1
    12    9   10 2
    13    9   11 1
    14    9   12 1
    15    9   13 1
    16   13   14 1
    17   14   15 1
    18   14   35 1
    19   14   36 1
    20   15   16 1
    21   15   17 1
    22   15   37 1
    23   16   21 1
    24   17   18 1
    25   17   19 1
    26   17   38 1
    27   18   39 1
    28   19   20 1
    29   19   21 1
    30   19   40 1
    31   20   41 1
    32   21   22 1
    33   21   42 1
    34   22   23 ar
    35   22   31 ar
    36   23   24 ar
    37   23   43 1
    38   24   25 ar
    39   25   26 ar
    40   25   31 ar
    41   26   27 1
    42   26   28 ar
    43   27   44 1
    44   27   45 1
    45   28   29 ar
    46   28   47 1
    47   29   30 ar
    48   29   46 1
    49   30   31 ar
@<TRIPOS>SUBSTRUCTURE
     1 ACP         1 GROUP 0 A     ****
@<TRIPOS>MOLECULE
[[5-(6-amino-1,8-dihydropurine-6,8-diylium-7-id-9-yl)-3,4-dihydroxy-tetrahydrofuran-2-yl]methoxy-oxido-phosphoryl]oxy-[[hydroxy(oxido)phosphoryl]methyl]phosphinate
   47    49     1     0     0
SMALL
USER_CHARGES

@<TRIPOS>ATOM
      1 PG         -0.2249   -5.0266    7.0703 P.3       1 ACP        -1.2804
      2 O1G        -1.1546   -5.0438    8.2611 O.co2     1 ACP         0.3195
      3 O2G        -0.4345   -4.0928    5.9006 O.co2     1 ACP         0.3195
      4 O3G         1.3168   -4.9058    7.5882 O.3       1 ACP         0.0326
      5 PB          0.8717   -7.2149    4.9291 P.3       1 ACP        -1.2804
      6 O1B         0.6707   -8.6938    4.6945 O.co2     1 ACP         0.3195
      7 O2B         2.2433   -6.6102    5.1223 O.co2     1 ACP         0.3195
      8 C3B        -0.1473   -6.7451    6.3972 C.3       1 ACP         0.8942
      9 PA          0.1815   -6.3463    2.1767 P.3       1 ACP        -1.1062
     10 O1A        -0.2700   -7.6906    1.6488 O.co2     1 ACP         0.3195
     11 O2A         1.5393   -5.7893    1.8067 O.co2     1 ACP         0.3195
     12 O3A         0.0550   -6.3623    3.8048 O.3       1 ACP         0.4672
     13 O5'        -0.9728   -5.2427    1.8237 O.3       1 ACP         0.1618
     14 C5'        -0.7840   -3.8935    2.2172 C.3       1 ACP         0.1504
     15 C4'        -0.0724   -3.1466    1.1027 C.3       1 ACP         0.1111
     16 O4'        -0.8674   -3.1929   -0.0945 O.3       1 ACP        -0.1436
     17 C3'         0.1338   -1.6715    1.4027 C.3       1 ACP         0.1111
     18 O3'         1.2893   -1.4445    2.1808 O.3       1 ACP        -0.2728
     19 C2'         0.2158   -1.0724    0.0128 C.3       1 ACP         0.1111
     20 O2'         1.5141   -1.2448   -0.5513 O.3       1 ACP        -0.2728
     21 C1'        -0.7897   -1.9176   -0.7583 C.3       1 ACP         0.2693
     22 N9         -2.1040   -1.3333   -0.7704 N.pl3     1 ACP        -0.3222
     23 C8         -3.2124   -1.5345    0.2719 C.ar      1 ACP         0.1640
     24 N7         -4.2964   -0.8234   -0.0828 N.2       1 ACP        -0.1640
     25 C5         -3.8754   -0.2386   -1.2478 C.ar      1 ACP         0.0820
     26 C6         -4.7432    0.6719   -2.0470 C.ar      1 ACP         0.1640
     27 N6         -5.9725    0.9415   -1.6366 N.pl3     1 ACP        -0.4916
     28 N1         -4.1703    1.1517   -3.1536 N.pl3     1 ACP        -0.4390
     29 C2         -2.8174    0.7994   -3.5215 C.ar      1 ACP         0.5691
     30 N3         -2.0475    0.0097   -2.8393 N.ar      1 ACP        -0.4283
     31 C4         -2.6278   -0.4836   -1.7071 C.ar      1 ACP         0.2226
     32 HOG3        1.5722   -4.1205    8.1176 H         1 ACP         0.2010
     33 H3B1       -1.1799   -7.0254    6.1615 H         1 ACP        -0.0393
     34 H3B2        0.1872   -7.3884    7.2186 H         1 ACP        -0.0393
     35 H5'1       -1.7614   -3.4427    2.4167 H         1 ACP        -0.0393
     36 H5'2       -0.1870   -3.8723    3.1344 H         1 ACP        -0.0393
     37 H4'         0.8883   -3.6447    0.8783 H         1 ACP        -0.0393
     38 H3'        -0.7368   -1.2359    1.9871 H         1 ACP        -0.0393
     39 HO3'        1.3407   -0.4871    2.3218 H         1 ACP         0.2010
     40 H2'        -0.0343   -0.0280    0.0196 H         1 ACP        -0.0393
     41 HO2'        2.1443   -0.7955    0.0378 H         1 ACP         0.2010
     42 H1'        -0.5175   -2.1046   -1.7826 H         1 ACP        -0.0393
     43 H8         -3.2310   -2.1319    1.1889 H         1 ACP         0.0000
     44 HN61       -6.3230    0.5316   -0.7829 H         1 ACP         0.2048
     45 HN62       -6.5628    1.5584   -2.1760 H         1 ACP         0.2048
     46 H2         -2.4822    1.2710   -4.4579 H         1 ACP        -0.1292
     47 H47        -4.7200    1.7780   -3.7346 H         1 ACP         0.2048
@<TRIPOS>BOND
     1    1    2 2
     2    1    3 1
     3    1    4 1
     4    1    8 1
     5    4   32 1
     6    5    6 2
     7    5    7 1
     8    5    8 1
     9    5   12 1
    10    8   33 1
    11    8   34 1
    12    9   10 2
    13    9   11 1
    14    9   12 1
    15    9   13 1
    16   13   14 1
    17   14   15 1
    18   14   35 1
    19   14   36 1
    20   15   16 1
    21   15   17 1
    22   15   37 1
    23   16   21 1
    24   17   18 1
    25   17   19 1
    26   17   38 1
    27   18   39 1
    28   19   20 1
    29   19   21 1
    30   19   40 1
    31   20   41 1
    32   21   22 1
    33   21   42 1
    34   22   23 ar
    35   22   31 ar
    36   23   24 ar
    37   23   43 1
    38   24   25 ar
    39   25   26 ar
    40   25   31 ar
    41   26   27 1
    42   26   28 ar
    43   27   44 1
    44   27   45 1
    45   28   29 ar
    46   28   47 1
    47   29   30 ar
    48   29   46 1
    49   30   31 ar
@<TRIPOS>SUBSTRUCTURE
     1 ACP         1 GROUP 0 A     ****
@<TRIPOS>MOLECULE
[[5-(6-amino-1,8-dihydropurine-6,8-diylium-7-id-9-yl)-3,4-dihydroxy-tetrahydrofuran-2-yl]methoxy-oxido-phosphoryl]oxy-[[hydroxy(oxido)phosphoryl]methyl]phosphinate
   47    49     1     0     0
SMALL
USER_CHARGES

@<TRIPOS>ATOM
      1 PG          6.7415    1.6670    0.7742 P.3       1 ACP        -1.2804
      2 O1G         6.8467    1.4742    2.2690 O.co2     1 ACP         0.3195
      3 O2G         5.5314    2.3026    0.1293 O.co2     1 ACP         0.3195
      4 O3G         8.0922    2.3982    0.2258 O.3       1 ACP         0.0326
      5 PB          6.9454   -0.2436   -1.8494 P.3       1 ACP        -1.2804
      6 O1B         7.1873   -1.7136   -2.1010 O.co2     1 ACP         0.3195
      7 O2B         7.8023    0.8316   -2.4771 O.co2     1 ACP         0.3195
      8 C3B         6.9882    0.0180   -0.0208 C.3       1 ACP         0.8942
      9 PA          4.4357   -0.0473   -3.4208 P.3       1 ACP        -1.1062
     10 O1A         4.2723   -1.5208   -3.7237 O.co2     1 ACP         0.3195
     11 O2A         4.9479    0.9052   -4.4795 O.co2     1 ACP         0.3195
     12 O3A         5.3713    0.1055   -2.0911 O.3       1 ACP         0.4672
     13 O5'         3.0198    0.5138   -2.8245 O.3       1 ACP         0.1618
     14 C5'         2.2816   -0.2918   -1.9206 C.3       1 ACP         0.1504
     15 C4'         2.7248    0.0226   -0.4980 C.3       1 ACP         0.1111
     16 O4'         2.4697    1.4219   -0.2462 O.3       1 ACP        -0.1436
     17 C3'         1.9404   -0.7419    0.5596 C.3       1 ACP         0.1111
     18 O3'         2.7418   -0.8086    1.7389 O.3       1 ACP        -0.2728
     19 C2'         0.7477    0.1630    0.7858 C.3       1 ACP         0.1111
     20 O2'         0.1373   -0.0577    2.0407 O.3       1 ACP        -0.2728
     21 C1'         1.3733    1.5427    0.6747 C.3       1 ACP         0.2693
     22 N9          0.4520    2.5240    0.1767 N.pl3     1 ACP        -0.3222
     23 C8         -1.0660    2.5608    0.3999 C.ar      1 ACP         0.1640
     24 N7         -1.5852    3.6333   -0.2221 N.2       1 ACP        -0.1640
     25 C5         -0.4682    4.1996   -0.7771 C.ar      1 ACP         0.0820
     26 C6         -0.5216    5.4476   -1.5899 C.ar      1 ACP         0.1640
     27 N6         -1.6813    6.0510   -1.7982 N.pl3     1 ACP        -0.4916
     28 N1          0.6621    5.8575   -2.0523 N.pl3     1 ACP        -0.4390
     29 C2          1.8795    5.1301   -1.7717 C.ar      1 ACP         0.5691
     30 N3          1.9458    4.0434   -1.0670 N.ar      1 ACP        -0.4283
     31 C4          0.7388    3.6199   -0.5917 C.ar      1 ACP         0.2226
     32 HOG3        8.3200    3.2849    0.5781 H         1 ACP         0.2010
     33 H3B1        6.2242   -0.6415    0.4056 H         1 ACP        -0.0393
     34 H3B2        7.9635   -0.3496    0.3169 H         1 ACP        -0.0393
     35 H5'1        1.2153   -0.0781   -2.0454 H         1 ACP        -0.0393
     36 H5'2        2.4645   -1.3454   -2.1547 H         1 ACP        -0.0393
     37 H4'         3.8046   -0.1390   -0.4011 H         1 ACP        -0.0393
     38 H3'         1.6787   -1.7627    0.2719 H         1 ACP        -0.0393
     39 HO3'        3.5553   -1.2733    1.4913 H         1 ACP         0.2010
     40 H2'         0.0002   -0.0084   -0.0014 H         1 ACP        -0.0393
     41 HO2'       -0.1554   -0.9852    2.0577 H         1 ACP         0.2010
     42 H1'         1.7718    1.9211    1.6015 H         1 ACP        -0.0393
     43 H8         -1.7235    1.8833    0.9537 H         1 ACP         0.0000
     44 HN61       -2.5296    5.6672   -1.4072 H         1 ACP         0.2048
     45 HN62       -1.7205    6.8969   -2.3483 H         1 ACP         0.2048
     46 H2          2.7750    5.5878   -2.2190 H         1 ACP        -0.1292
     47 H47         0.6808    6.7046   -2.6128 H         1 ACP         0.2048
@<TRIPOS>BOND
     1    1    2 2
     2    1    3 1
     3    1    4 1
     4    1    8 1
     5    4   32 1
     6    5    6 2
     7    5    7 1
     8    5    8 1
     9    5   12 1
    10    8   33 1
    11    8   34 1
    12    9   10 2
    13    9   11 1
    14    9   12 1
    15    9   13 1
    16   13   14 1
    17   14   15 1
    18   14   35 1
    19   14   36 1
    20   15   16 1
    21   15   17 1
    22   15   37 1
    23   16   21 1
    24   17   18 1
    25   17   19 1
    26   17   38 1
    27   18   39 1
    28   19   20 1
    29   19   21 1
    30   19   40 1
    31   20   41 1
    32   21   22 1
    33   21   42 1
    34   22   23 ar
    35   22   31 ar
    36   23   24 ar
    37   23   43 1
    38   24   25 ar
    39   25   26 ar
    40   25   31 ar
    41   26   27 1
    42   26   28 ar
    43   27   44 1
    44   27   45 1
    45   28   29 ar
    46   28   47 1
    47   29   30 ar
    48   29   46 1
    49   30   31 ar
@<TRIPOS>SUBSTRUCTURE
     1 ACP         1 GROUP 0 A     ****
@<TRIPOS>MOLECULE
[[5-(6-amino-1,8-dihydropurine-6,8-diylium-7-id-9-yl)-3,4-dihydroxy-tetrahydrofuran-2-yl]methoxy-oxido-phosphoryl]oxy-[[hydroxy(oxido)phosphoryl]methyl]phosphinate
   47    49     1     0     0
SMALL
USER_CHARGES

@<TRIPOS>ATOM
      1 PG         -3.2860   -8.5413    1.5757 P.3       1 ACP        -1.2804
      2 O1G        -3.9291   -9.9002    1.7263 O.co2     1 ACP         0.3195
      3 O2G        -2.1916   -8.0632    2.5019 O.co2     1 ACP         0.3195
      4 O3G        -2.8131   -8.3341    0.0287 O.3       1 ACP         0.0326
      5 PB         -4.3263   -5.4622    1.4650 P.3       1 ACP        -1.2804
      6 O1B        -5.6669   -4.7698    1.5422 O.co2     1 ACP         0.3195
      7 O2B        -3.3828   -5.2609    0.3015 O.co2     1 ACP         0.3195
      8 C3B        -4.6332   -7.2781    1.6152 C.3       1 ACP         0.8942
      9 PA         -3.0181   -3.8920    3.6167 P.3       1 ACP        -1.1062
     10 O1A        -2.1616   -4.2860    4.8002 O.co2     1 ACP         0.3195
     11 O2A        -4.2124   -2.9804    3.7989 O.co2     1 ACP         0.3195
     12 O3A        -3.5163   -5.2531    2.8644 O.3       1 ACP         0.4672
     13 O5'        -2.0403   -3.2809    2.4568 O.3       1 ACP         0.1618
     14 C5'        -0.7840   -3.8935    2.2172 C.3       1 ACP         0.1504
     15 C4'        -0.0724   -3.1466    1.1027 C.3       1 ACP         0.1111
     16 O4'        -0.8674   -3.1929   -0.0945 O.3       1 ACP        -0.1436
     17 C3'         0.1338   -1.6715    1.4027 C.3       1 ACP         0.1111
     18 O3'         1.2893   -1.4445    2.1808 O.3       1 ACP        -0.2728
     19 C2'         0.2158   -1.0724    0.0128 C.3       1 ACP         0.1111
     20 O2'         1.5141   -1.2448   -0.5513 O.3       1 ACP        -0.2728
     21 C1'        -0.7897   -1.9176   -0.7583 C.3       1 ACP         0.2693
     22 N9         -2.1040   -1.3333   -0.7704 N.pl3     1 ACP        -0.3222
     23 C8         -3.3877   -1.9383   -0.1859 C.ar      1 ACP         0.1640
     24 N7         -4.4144   -1.0952   -0.3898 N.2       1 ACP        -0.1640
     25 C5         -3.7988   -0.0622   -1.0459 C.ar      1 ACP         0.0820
     26 C6         -4.5350    1.1514   -1.4997 C.ar      1 ACP         0.1640
     27 N6         -5.8347    1.2592   -1.2722 N.pl3     1 ACP        -0.4916
     28 N1         -3.7771    2.0576   -2.1221 N.pl3     1 ACP        -0.4390
     29 C2         -2.3607    1.8514   -2.3252 C.ar      1 ACP         0.5691
     30 N3         -1.7031    0.8030   -1.9377 N.ar      1 ACP        -0.4283
     31 C4         -2.4728   -0.1265   -1.3008 C.ar      1 ACP         0.2226
     32 HOG3       -2.1626   -8.9632   -0.3498 H         1 ACP         0.2010
     33 H3B1       -5.1606   -7.4268    2.5640 H         1 ACP        -0.0393
     34 H3B2       -5.3291   -7.5372    0.8097 H         1 ACP        -0.0393
     35 H5'1       -0.1929   -3.8610    3.1379 H         1 ACP        -0.0393
     36 H5'2       -0.9476   -4.9382    1.9344 H         1 ACP        -0.0393
     37 H4'         0.8883   -3.6447    0.8783 H         1 ACP        -0.0393
     38 H3'        -0.7368   -1.2359    1.9871 H         1 ACP        -0.0393
     39 HO3'        1.3407   -0.4871    2.3218 H         1 ACP         0.2010
     40 H2'        -0.0343   -0.0280    0.0196 H         1 ACP        -0.0393
     41 HO2'        2.1443   -0.7955    0.0378 H         1 ACP         0.2010
     42 H1'        -0.5175   -2.1046   -1.7826 H         1 ACP        -0.0393
     43 H8         -3.5590   -2.8873    0.3318 H         1 ACP         0.0000
     44 HN61       -6.3278    0.5206   -0.7915 H         1 ACP         0.2048
     45 HN62       -6.3361    2.0806   -1.5783 H         1 ACP         0.2048
     46 H2         -1.8692    2.6833   -2.8525 H         1 ACP        -0.1292
     47 H47        -4.2310    2.9046   -2.4517 H         1 ACP         0.2048
@<TRIPOS>BOND
     1    1    2 2
     2    1    3 1
     3    1    4 1
     4    1    8 1
     5    4   32 1
     6    5    6 2
     7    5    7 1
     8    5    8 1
     9    5   12 1
    10    8   33 1
    11    8   34 1
    12    9   10 2
    13    9   11 1
    14    9   12 1
    15    9   13 1
    16   13   14 1
    17   14   15 1
    18   14   35 1
    19   14   36 1
    20   15   16 1
    21   15   17 1
    22   15   37 1
    23   16   21 1
    24   17   18 1
    25   17   19 1
    26   17   38 1
    27   18   39 1
    28   19   20 1
    29   19   21 1
    30   19   40 1
    31   20   41 1
    32   21   22 1
    33   21   42 1
    34   22   23 ar
    35   22   31 ar
    36   23   24 ar
    37   23   43 1
    38   24   25 ar
    39   25   26 ar
    40   25   31 ar
    41   26   27 1
    42   26   28 ar
    43   27   44 1
    44   27   45 1
    45   28   29 ar
    46   28   47 1
    47   29   30 ar
    48   29   46 1
    49   30   31 ar
@<TRIPOS>SUBSTRUCTURE
     1 ACP         1 GROUP 0 A     ****
@<TRIPOS>MOLECULE
[[5-(6-amino-1,8-dihydropurine-6,8-diylium-7-id-9-yl)-3,4-dihydroxy-tetrahydrofuran-2-yl]methoxy-oxido-phosphoryl]oxy-[[hydroxy(oxido)phosphoryl]methyl]phosphinate
   47    49     1     0     0
SMALL
USER_CHARGES

@<TRIPOS>ATOM
      1 PG         -4.3123   -6.4589    5.0015 P.3       1 ACP        -1.2804
      2 O1G        -5.6256   -6.8143    4.3444 O.co2     1 ACP         0.3195
      3 O2G        -3.7611   -5.0517    4.9862 O.co2     1 ACP         0.3195
      4 O3G        -4.3000   -7.0271    6.5301 O.3       1 ACP         0.0326
      5 PB         -1.2386   -7.5009    4.7969 P.3       1 ACP        -1.2804
      6 O1B        -0.5040   -8.5538    4.0005 O.co2     1 ACP         0.3195
      7 O2B        -1.2009   -7.4629    6.3073 O.co2     1 ACP         0.3195
      8 C3B        -3.0152   -7.5672    4.2934 C.3       1 ACP         0.8942
      9 PA          0.5333   -5.2357    4.0646 P.3       1 ACP        -1.1062
     10 O1A         1.3818   -5.9653    3.0461 O.co2     1 ACP         0.3195
     11 O2A         1.0665   -4.9546    5.4529 O.co2     1 ACP         0.3195
     12 O3A        -0.8914   -6.0212    4.2069 O.3       1 ACP         0.4672
     13 O5'         0.0099   -3.8403    3.3910 O.3       1 ACP         0.1618
     14 C5'        -0.7840   -3.8935    2.2172 C.3       1 ACP         0.1504
     15 C4'        -0.0724   -3.1466    1.1027 C.3       1 ACP         0.1111
     16 O4'        -0.8674   -3.1929   -0.0945 O.3       1 ACP        -0.1436
     17 C3'         0.1338   -1.6715    1.4027 C.3       1 ACP         0.1111
     18 O3'         1.2893   -1.4445    2.1808 O.3       1 ACP        -0.2728
     19 C2'         0.2158   -1.0724    0.0128 C.3       1 ACP         0.1111
     20 O2'         1.5141   -1.2448   -0.5513 O.3       1 ACP        -0.2728
     21 C1'        -0.7897   -1.9176   -0.7583 C.3       1 ACP         0.2693
     22 N9         -2.1040   -1.3333   -0.7704 N.pl3     1 ACP        -0.3222
     23 C8         -3.2124   -1.5345    0.2719 C.ar      1 ACP         0.1640
     24 N7         -4.2964   -0.8234   -0.0828 N.2       1 ACP        -0.1640
     25 C5         -3.8754   -0.2386   -1.2478 C.ar      1 ACP         0.0820
     26 C6         -4.7432    0.6719   -2.0470 C.ar      1 ACP         0.1640
     27 N6         -5.9725    0.9415   -1.6366 N.pl3     1 ACP        -0.4916
     28 N1         -4.1703    1.1517   -3.1536 N.pl3     1 ACP        -0.4390
     29 C2         -2.8174    0.7994   -3.5215 C.ar      1 ACP         0.5691
     30 N3         -2.0475    0.0097   -2.8393 N.ar      1 ACP        -0.4283
     31 C4         -2.6278   -0.4836   -1.7071 C.ar      1 ACP         0.2226
     32 HOG3       -4.9871   -6.7082    7.1533 H         1 ACP         0.2010
     33 H3B1       -3.0375   -7.4065    3.2099 H         1 ACP        -0.0393
     34 H3B2       -3.3463   -8.5951    4.4789 H         1 ACP        -0.0393
     35 H5'1       -0.9358   -4.9414    1.9395 H         1 ACP        -0.0393
     36 H5'2       -1.7558   -3.4349    2.4258 H         1 ACP        -0.0393
     37 H4'         0.8883   -3.6447    0.8783 H         1 ACP        -0.0393
     38 H3'        -0.7368   -1.2359    1.9871 H         1 ACP        -0.0393
     39 HO3'        1.1625   -1.9325    3.0084 H         1 ACP         0.2010
     40 H2'        -0.0343   -0.0280    0.0196 H         1 ACP        -0.0393
     41 HO2'        2.1443   -0.7955    0.0378 H         1 ACP         0.2010
     42 H1'        -0.5175   -2.1046   -1.7826 H         1 ACP        -0.0393
     43 H8         -3.2310   -2.1319    1.1889 H         1 ACP         0.0000
     44 HN61       -6.3230    0.5316   -0.7829 H         1 ACP         0.2048
     45 HN62       -6.5628    1.5584   -2.1760 H         1 ACP         0.2048
     46 H2         -2.4822    1.2710   -4.4579 H         1 ACP        -0.1292
     47 H47        -4.7200    1.7780   -3.7346 H         1 ACP         0.2048
@<TRIPOS>BOND
     1    1    2 2
     2    1    3 1
     3    1    4 1
     4    1    8 1
     5    4   32 1
     6    5    6 2
     7    5    7 1
     8    5    8 1
     9    5   12 1
    10    8   33 1
    11    8   34 1
    12    9   10 2
    13    9   11 1
    14    9   12 1
    15    9   13 1
    16   13   14 1
    17   14   15 1
    18   14   35 1
    19   14   36 1
    20   15   16 1
    21   15   17 1
    22   15   37 1
    23   16   21 1
    24   17   18 1
    25   17   19 1
    26   17   38 1
    27   18   39 1
    28   19   20 1
    29   19   21 1
    30   19   40 1
    31   20   41 1
    32   21   22 1
    33   21   42 1
    34   22   23 ar
    35   22   31 ar
    36   23   24 ar
    37   23   43 1
    38   24   25 ar
    39   25   26 ar
    40   25   31 ar
    41   26   27 1
    42   26   28 ar
    43   27   44 1
    44   27   45 1
    45   28   29 ar
    46   28   47 1
    47   29   30 ar
    48   29   46 1
    49   30   31 ar
@<TRIPOS>SUBSTRUCTURE
     1 ACP         1 GROUP 0 A     ****
@<TRIPOS>MOLECULE
[[5-(6-amino-1,8-dihydropurine-6,8-diylium-7-id-9-yl)-3,4-dihydroxy-tetrahydrofuran-2-yl]methoxy-oxido-phosphoryl]oxy-[[hydroxy(oxido)phosphoryl]methyl]phosphinate
   47    49     1     0     0
SMALL
USER_CHARGES

@<TRIPOS>ATOM
      1 PG          5.9947    1.5527   -3.9419 P.3       1 ACP        -1.2804
      2 O1G         5.7915    2.0183   -2.5189 O.co2     1 ACP         0.3195
      3 O2G         4.8824    1.5855   -4.9646 O.co2     1 ACP         0.3195
      4 O3G         7.3207    2.2711   -4.5629 O.3       1 ACP         0.0326
      5 PB          5.7071   -1.5745   -3.0977 P.3       1 ACP        -1.2804
      6 O1B         5.4960   -1.2202   -1.6442 O.co2     1 ACP         0.3195
      7 O2B         6.3847   -2.8569   -3.5227 O.co2     1 ACP         0.3195
      8 C3B         6.6340   -0.1791   -3.8773 C.3       1 ACP         0.8942
      9 PA          2.8591   -2.1299   -3.7201 P.3       1 ACP        -1.1062
     10 O1A         3.0727   -3.6280   -3.7234 O.co2     1 ACP         0.3195
     11 O2A         1.8686   -1.4903   -4.6689 O.co2     1 ACP         0.3195
     12 O3A         4.3077   -1.4018   -3.9162 O.3       1 ACP         0.4672
     13 O5'         2.5237   -1.6631   -2.1889 O.3       1 ACP         0.1618
     14 C5'         2.2816   -0.2918   -1.9206 C.3       1 ACP         0.1504
     15 C4'         2.7248    0.0226   -0.4980 C.3       1 ACP         0.1111
     16 O4'         2.4697    1.4219   -0.2462 O.3       1 ACP        -0.1436
     17 C3'         1.9404   -0.7419    0.5596 C.3       1 ACP         0.1111
     18 O3'         2.7418   -0.8086    1.7389 O.3       1 ACP        -0.2728
     19 C2'         0.7477    0.1630    0.7858 C.3       1 ACP         0.1111
     20 O2'         0.1373   -0.0577    2.0407 O.3       1 ACP        -0.2728
     21 C1'         1.3733    1.5427    0.6747 C.3       1 ACP         0.2693
     22 N9          0.4520    2.5240    0.1767 N.pl3     1 ACP        -0.3222
     23 C8         -0.8593    2.9753    0.8343 C.ar      1 ACP         0.1640
     24 N7         -1.4458    3.9121    0.0693 N.2       1 ACP        -0.1640
     25 C5         -0.5581    4.0180   -0.9686 C.ar      1 ACP         0.0820
     26 C6         -0.7663    4.9543   -2.1092 C.ar      1 ACP         0.1640
     27 N6         -1.8429    5.7238   -2.1440 N.pl3     1 ACP        -0.4916
     28 N1          0.1993    4.9263   -3.0311 N.pl3     1 ACP        -0.4390
     29 C2          1.3416    4.0491   -2.9069 C.ar      1 ACP         0.5691
     30 N3          1.5401    3.2284   -1.9225 N.ar      1 ACP        -0.4283
     31 C4          0.5563    3.2529   -0.9772 C.ar      1 ACP         0.2226
     32 HOG3        7.3417    3.2505   -4.6136 H         1 ACP         0.2010
     33 H3B1        7.6025   -0.1260   -3.3677 H         1 ACP        -0.0393
     34 H3B2        6.8251   -0.4812   -4.9130 H         1 ACP        -0.0393
     35 H5'1        2.8429    0.3140   -2.6391 H         1 ACP        -0.0393
     36 H5'2        1.2125   -0.0906   -2.0420 H         1 ACP        -0.0393
     37 H4'         3.8046   -0.1390   -0.4011 H         1 ACP        -0.0393
     38 H3'         1.6787   -1.7627    0.2719 H         1 ACP        -0.0393
     39 HO3'        2.2231   -1.2979    2.3952 H         1 ACP         0.2010
     40 H2'         0.0002   -0.0084   -0.0014 H         1 ACP        -0.0393
     41 HO2'       -0.1554   -0.9852    2.0577 H         1 ACP         0.2010
     42 H1'         1.7718    1.9211    1.6015 H         1 ACP        -0.0393
     43 H8         -1.3368    2.6590    1.7670 H         1 ACP         0.0000
     44 HN61       -2.5230    5.6776   -1.3990 H         1 ACP         0.2048
     45 HN62       -1.9865    6.3594   -2.9154 H         1 ACP         0.2048
     46 H2          2.0529    4.1368   -3.7423 H         1 ACP        -0.1292
     47 H47         0.1054    5.5465   -3.8301 H         1 ACP         0.2048
@<TRIPOS>BOND
     1    1    2 2
     2    1    3 1
     3    1    4 1
     4    1    8 1
     5    4   32 1
     6    5    6 2
     7    5    7 1
     8    5    8 1
     9    5   12 1
    10    8   33 1
    11    8   34 1
    12    9   10 2
    13    9   11 1
    14    9   12 1
    15    9   13 1
    16   13   14 1
    17   14   15 1
    18   14   35 1
    19   14   36 1
    20   15   16 1
    21   15   17 1
    22   15   37 1
    23   16   21 1
    24   17   18 1
    25   17   19 1
    26   17   38 1
    27   18   39 1
    28   19   20 1
    29   19   21 1
    30   19   40 1
    31   20   41 1
    32   21   22 1
    33   21   42 1
    34   22   23 ar
    35   22   31 ar
    36   23   24 ar
    37   23   43 1
    38   24   25 ar
    39   25   26 ar
    40   25   31 ar
    41   26   27 1
    42   26   28 ar
    43   27   44 1
    44   27   45 1
    45   28   29 ar
    46   28   47 1
    47   29   30 ar
    48   29   46 1
    49   30   31 ar
@<TRIPOS>SUBSTRUCTURE
     1 ACP         1 GROUP 0 A     ****
@<TRIPOS>MOLECULE
[[5-(6-amino-1,8-dihydropurine-6,8-diylium-7-id-9-yl)-3,4-dihydroxy-tetrahydrofuran-2-yl]methoxy-oxido-phosphoryl]oxy-[[hydroxy(oxido)phosphoryl]methyl]phosphinate
   47    49     1     0     0
SMALL
USER_CHARGES

@<TRIPOS>ATOM
      1 PG         -1.9818   -6.9495    6.4661 P.3       1 ACP        -1.2804
      2 O1G        -2.5759   -6.1245    5.3483 O.co2     1 ACP         0.3195
      3 O2G        -2.4021   -6.7716    7.9069 O.co2     1 ACP         0.3195
      4 O3G        -2.0585   -8.5303    6.0725 O.3       1 ACP         0.0326
      5 PB          0.8717   -7.2149    4.9291 P.3       1 ACP        -1.2804
      6 O1B         0.6707   -8.6938    4.6945 O.co2     1 ACP         0.3195
      7 O2B         2.2433   -6.6102    5.1223 O.co2     1 ACP         0.3195
      8 C3B        -0.1473   -6.7451    6.3972 C.3       1 ACP         0.8942
      9 PA          0.1815   -6.3463    2.1767 P.3       1 ACP        -1.1062
     10 O1A        -0.2700   -7.6906    1.6488 O.co2     1 ACP         0.3195
     11 O2A         1.5393   -5.7893    1.8067 O.co2     1 ACP         0.3195
     12 O3A         0.0550   -6.3623    3.8048 O.3       1 ACP         0.4672
     13 O5'        -0.9728   -5.2427    1.8237 O.3       1 ACP         0.1618
     14 C5'        -0.7840   -3.8935    2.2172 C.3       1 ACP         0.1504
     15 C4'        -0.0724   -3.1466    1.1027 C.3       1 ACP         0.1111
     16 O4'        -0.8674   -3.1929   -0.0945 O.3       1 ACP        -0.1436
     17 C3'         0.1338   -1.6715    1.4027 C.3       1 ACP         0.1111
     18 O3'         1.2893   -1.4445    2.1808 O.3       1 ACP        -0.2728
     19 C2'         0.2158   -1.0724    0.0128 C.3       1 ACP         0.1111
     20 O2'         1.5141   -1.2448   -0.5513 O.3       1 ACP        -0.2728
     21 C1'        -0.7897   -1.9176   -0.7583 C.3       1 ACP         0.2693
     22 N9         -2.1040   -1.3333   -0.7704 N.pl3     1 ACP        -0.3222
     23 C8         -3.2124   -1.5345    0.2719 C.ar      1 ACP         0.1640
     24 N7         -4.2964   -0.8234   -0.0828 N.2       1 ACP        -0.1640
     25 C5         -3.8754   -0.2386   -1.2478 C.ar      1 ACP         0.0820
     26 C6         -4.7432    0.6719   -2.0470 C.ar      1 ACP         0.1640
     27 N6         -5.9725    0.9415   -1.6366 N.pl3     1 ACP        -0.4916
     28 N1         -4.1703    1.1517   -3.1536 N.pl3     1 ACP        -0.4390
     29 C2         -2.8174    0.7994   -3.5215 C.ar      1 ACP         0.5691
     30 N3         -2.0475    0.0097   -2.8393 N.ar      1 ACP        -0.4283
     31 C4         -2.6278   -0.4836   -1.7071 C.ar      1 ACP         0.2226
     32 HOG3       -2.9393   -8.9290    5.9068 H         1 ACP         0.2010
     33 H3B1        0.2528   -7.3095    7.2468 H         1 ACP        -0.0393
     34 H3B2        0.0569   -5.6849    6.5831 H         1 ACP        -0.0393
     35 H5'1       -1.7614   -3.4427    2.4167 H         1 ACP        -0.0393
     36 H5'2       -0.1870   -3.8723    3.1344 H         1 ACP        -0.0393
     37 H4'         0.8883   -3.6447    0.8783 H         1 ACP        -0.0393
     38 H3'        -0.7368   -1.2359    1.9871 H         1 ACP        -0.0393
     39 HO3'        1.3407   -0.4871    2.3218 H         1 ACP         0.2010
     40 H2'        -0.0343   -0.0280    0.0196 H         1 ACP        -0.0393
     41 HO2'        2.1443   -0.7955    0.0378 H         1 ACP         0.2010
     42 H1'        -0.5175   -2.1046   -1.7826 H         1 ACP        -0.0393
     43 H8         -3.2310   -2.1319    1.1889 H         1 ACP         0.0000
     44 HN61       -6.3230    0.5316   -0.7829 H         1 ACP         0.2048
     45 HN62       -6.5628    1.5584   -2.1760 H         1 ACP         0.2048
     46 H2         -2.4822    1.2710   -4.4579 H         1 ACP        -0.1292
     47 H47        -4.7200    1.7780   -3.7346 H         1 ACP         0.2048
@<TRIPOS>BOND
     1    1    2 2
     2    1    3 1
     3    1    4 1
     4    1    8 1
     5    4   32 1
     6    5    6 2
     7    5    7 1
     8    5    8 1
     9    5   12 1
    10    8   33 1
    11    8   34 1
    12    9   10 2
    13    9   11 1
    14    9   12 1
    15    9   13 1
    16   13   14 1
    17   14   15 1
    18   14   35 1
    19   14   36 1
    20   15   16 1
    21   15   17 1
    22   15   37 1
    23   16   21 1
    24   17   18 1
    25   17   19 1
    26   17   38 1
    27   18   39 1
    28   19   20 1
    29   19   21 1
    30   19   40 1
    31   20   41 1
    32   21   22 1
    33   21   42 1
    34   22   23 ar
    35   22   31 ar
    36   23   24 ar
    37   23   43 1
    38   24   25 ar
    39   25   26 ar
    40   25   31 ar
    41   26   27 1
    42   26   28 ar
    43   27   44 1
    44   27   45 1
    45   28   29 ar
    46   28   47 1
    47   29   30 ar
    48   29   46 1
    49   30   31 ar
@<TRIPOS>SUBSTRUCTURE
     1 ACP         1 GROUP 0 A     ****
@<TRIPOS>MOLECULE
[[5-(6-amino-1,8-dihydropurine-6,8-diylium-7-id-9-yl)-3,4-dihydroxy-tetrahydrofuran-2-yl]methoxy-oxido-phosphoryl]oxy-[[hydroxy(oxido)phosphoryl]methyl]phosphinate
   47    49     1     0     0
SMALL
USER_CHARGES

@<TRIPOS>ATOM
      1 PG          1.7965   -0.8738   -7.2360 P.3       1 ACP        -1.2804
      2 O1G         2.4502   -2.0428   -7.9351 O.co2     1 ACP         0.3195
      3 O2G         2.5284   -0.0395   -6.2101 O.co2     1 ACP         0.3195
      4 O3G         1.1158    0.1092   -8.3453 O.3       1 ACP         0.0326
      5 PB          0.2277   -2.8244   -5.1602 P.3       1 ACP        -1.2804
      6 O1B         0.8239   -4.0631   -5.7871 O.co2     1 ACP         0.3195
      7 O2B        -1.1472   -2.8228   -4.5326 O.co2     1 ACP         0.3195
      8 C3B         0.2483   -1.4927   -6.4409 C.3       1 ACP         0.8942
      9 PA          2.0054   -2.7672   -2.7847 P.3       1 ACP        -1.1062
     10 O1A         2.9308   -3.8905   -3.1989 O.co2     1 ACP         0.3195
     11 O2A         0.9346   -2.9961   -1.7400 O.co2     1 ACP         0.3195
     12 O3A         1.2984   -2.1600   -4.1258 O.3       1 ACP         0.4672
     13 O5'         2.9202   -1.4821   -2.3524 O.3       1 ACP         0.1618
     14 C5'         2.2816   -0.2918   -1.9206 C.3       1 ACP         0.1504
     15 C4'         2.7248    0.0226   -0.4980 C.3       1 ACP         0.1111
     16 O4'         2.4697    1.4219   -0.2462 O.3       1 ACP        -0.1436
     17 C3'         1.9404   -0.7419    0.5596 C.3       1 ACP         0.1111
     18 O3'         2.7418   -0.8086    1.7389 O.3       1 ACP        -0.2728
     19 C2'         0.7477    0.1630    0.7858 C.3       1 ACP         0.1111
     20 O2'         0.1373   -0.0577    2.0407 O.3       1 ACP        -0.2728
     21 C1'         1.3733    1.5427    0.6747 C.3       1 ACP         0.2693
     22 N9          0.4520    2.5240    0.1767 N.pl3     1 ACP        -0.3222
     23 C8          0.5793    3.3338   -1.1209 C.ar      1 ACP         0.1640
     24 N7         -0.4807    4.1508   -1.2458 N.2       1 ACP        -0.1640
     25 C5         -1.1921    3.8572   -0.1126 C.ar      1 ACP         0.0820
     26 C6         -2.4855    4.5203    0.2163 C.ar      1 ACP         0.1640
     27 N6         -2.9873    5.4319   -0.6020 N.pl3     1 ACP        -0.4916
     28 N1         -3.0414    4.1119    1.3596 N.pl3     1 ACP        -0.4390
     29 C2         -2.4169    3.1071    2.1904 C.ar      1 ACP         0.5691
     30 N3         -1.2928    2.5191    1.9210 N.ar      1 ACP        -0.4283
     31 C4         -0.7202    2.9326    0.7534 C.ar      1 ACP         0.2226
     32 HOG3        1.6924    0.5148   -9.0274 H         1 ACP         0.2010
     33 H3B1       -0.3954   -1.8371   -7.2580 H         1 ACP        -0.0393
     34 H3B2       -0.2385   -0.6237   -5.9847 H         1 ACP        -0.0393
     35 H5'1        2.5581    0.5235   -2.5966 H         1 ACP        -0.0393
     36 H5'2        1.1974   -0.4370   -1.9607 H         1 ACP        -0.0393
     37 H4'         3.8046   -0.1390   -0.4011 H         1 ACP        -0.0393
     38 H3'         1.6787   -1.7627    0.2719 H         1 ACP        -0.0393
     39 HO3'        3.5553   -1.2733    1.4913 H         1 ACP         0.2010
     40 H2'         0.0002   -0.0084   -0.0014 H         1 ACP        -0.0393
     41 HO2'       -0.1554   -0.9852    2.0577 H         1 ACP         0.2010
     42 H1'         1.7718    1.9211    1.6015 H         1 ACP        -0.0393
     43 H8          1.3565    3.3309   -1.8916 H         1 ACP         0.0000
     44 HN61       -2.4952    5.6785   -1.4487 H         1 ACP         0.2048
     45 HN62       -3.8637    5.8828   -0.3819 H         1 ACP         0.2048
     46 H2         -2.9911    2.8734    3.1000 H         1 ACP        -0.1292
     47 H47        -3.9253    4.5332    1.6302 H         1 ACP         0.2048
@<TRIPOS>BOND
     1    1    2 2
     2    1    3 1
     3    1    4 1
     4    1    8 1
     5    4   32 1
     6    5    6 2
     7    5    7 1
     8    5    8 1
     9    5   12 1
    10    8   33 1
    11    8   34 1
    12    9   10 2
    13    9   11 1
    14    9   12 1
    15    9   13 1
    16   13   14 1
    17   14   15 1
    18   14   35 1
    19   14   36 1
    20   15   16 1
    21   15   17 1
    22   15   37 1
    23   16   21 1
    24   17   18 1
    25   17   19 1
    26   17   38 1
    27   18   39 1
    28   19   20 1
    29   19   21 1
    30   19   40 1
    31   20   41 1
    32   21   22 1
    33   21   42 1
    34   22   23 ar
    35   22   31 ar
    36   23   24 ar
    37   23   43 1
    38   24   25 ar
    39   25   26 ar
    40   25   31 ar
    41   26   27 1
    42   26   28 ar
    43   27   44 1
    44   27   45 1
    45   28   29 ar
    46   28   47 1
    47   29   30 ar
    48   29   46 1
    49   30   31 ar
@<TRIPOS>SUBSTRUCTURE
     1 ACP         1 GROUP 0 A     ****
@<TRIPOS>MOLECULE
[[5-(6-amino-1,8-dihydropurine-6,8-diylium-7-id-9-yl)-3,4-dihydroxy-tetrahydrofuran-2-yl]methoxy-oxido-phosphoryl]oxy-[[hydroxy(oxido)phosphoryl]methyl]phosphinate
   47    49     1     0     0
SMALL
USER_CHARGES

@<TRIPOS>ATOM
      1 PG          3.8903    0.2860   -6.3238 P.3       1 ACP        -1.2804
      2 O1G         2.9434    0.5839   -5.1847 O.co2     1 ACP         0.3195
      3 O2G         3.7371    0.9262   -7.6843 O.co2     1 ACP         0.3195
      4 O3G         5.4280    0.4674   -5.8117 O.3       1 ACP         0.0326
      5 PB          4.4189   -2.7429   -5.2647 P.3       1 ACP        -1.2804
      6 O1B         5.8487   -2.4236   -4.8957 O.co2     1 ACP         0.3195
      7 O2B         3.9948   -4.1188   -5.7245 O.co2     1 ACP         0.3195
      8 C3B         3.9055   -1.5441   -6.5738 C.3       1 ACP         0.8942
      9 PA          3.3333   -2.6377   -2.5048 P.3       1 ACP        -1.1062
     10 O1A         4.5844   -2.1385   -1.8155 O.co2     1 ACP         0.3195
     11 O2A         2.9259   -4.0918   -2.4049 O.co2     1 ACP         0.3195
     12 O3A         3.4174   -2.2313   -4.0843 O.3       1 ACP         0.4672
     13 O5'         2.0818   -1.6902   -2.0452 O.3       1 ACP         0.1618
     14 C5'         2.2816   -0.2918   -1.9206 C.3       1 ACP         0.1504
     15 C4'         2.7248    0.0226   -0.4980 C.3       1 ACP         0.1111
     16 O4'         2.4697    1.4219   -0.2462 O.3       1 ACP        -0.1436
     17 C3'         1.9404   -0.7419    0.5596 C.3       1 ACP         0.1111
     18 O3'         2.7418   -0.8086    1.7389 O.3       1 ACP        -0.2728
     19 C2'         0.7477    0.1630    0.7858 C.3       1 ACP         0.1111
     20 O2'         0.1373   -0.0577    2.0407 O.3       1 ACP        -0.2728
     21 C1'         1.3733    1.5427    0.6747 C.3       1 ACP         0.2693
     22 N9          0.4520    2.5240    0.1767 N.pl3     1 ACP        -0.3222
     23 C8          0.1798    2.8712   -1.2933 C.ar      1 ACP         0.1640
     24 N7         -0.7494    3.8400   -1.3610 N.2       1 ACP        -0.1640
     25 C5         -1.0173    4.0603   -0.0358 C.ar      1 ACP         0.0820
     26 C6         -2.0105    5.0717    0.4241 C.ar      1 ACP         0.1640
     27 N6         -2.6723    5.7982   -0.4628 N.pl3     1 ACP        -0.4916
     28 N1         -2.1445    5.1522    1.7502 N.pl3     1 ACP        -0.4390
     29 C2         -1.3755    4.3143    2.6426 C.ar      1 ACP         0.5691
     30 N3         -0.5075    3.4292    2.2616 N.ar      1 ACP        -0.4283
     31 C4         -0.3667    3.3425    0.9070 C.ar      1 ACP         0.2226
     32 HOG3        5.7085    1.3450   -5.4749 H         1 ACP         0.2010
     33 H3B1        4.5570   -1.7270   -7.4356 H         1 ACP        -0.0393
     34 H3B2        2.8886   -1.8288   -6.8658 H         1 ACP        -0.0393
     35 H5'1        3.0467    0.0218   -2.6379 H         1 ACP        -0.0393
     36 H5'2        1.3432    0.2220   -2.1518 H         1 ACP        -0.0393
     37 H4'         3.8046   -0.1390   -0.4011 H         1 ACP        -0.0393
     38 H3'         1.6787   -1.7627    0.2719 H         1 ACP        -0.0393
     39 HO3'        2.2231   -1.2979    2.3952 H         1 ACP         0.2010
     40 H2'         0.0002   -0.0084   -0.0014 H         1 ACP        -0.0393
     41 HO2'       -0.1554   -0.9852    2.0577 H         1 ACP         0.2010
     42 H1'         1.7718    1.9211    1.6015 H         1 ACP        -0.0393
     43 H8          0.6089    2.4651   -2.2147 H         1 ACP         0.0000
     44 HN61       -2.5055    5.6680   -1.4503 H         1 ACP         0.2048
     45 HN62       -3.3462    6.4841   -0.1542 H         1 ACP         0.2048
     46 H2         -1.5932    4.4937    3.7066 H         1 ACP        -0.1292
     47 H47        -2.8098    5.8270    2.1160 H         1 ACP         0.2048
@<TRIPOS>BOND
     1    1    2 2
     2    1    3 1
     3    1    4 1
     4    1    8 1
     5    4   32 1
     6    5    6 2
     7    5    7 1
     8    5    8 1
     9    5   12 1
    10    8   33 1
    11    8   34 1
    12    9   10 2
    13    9   11 1
    14    9   12 1
    15    9   13 1
    16   13   14 1
    17   14   15 1
    18   14   35 1
    19   14   36 1
    20   15   16 1
    21   15   17 1
    22   15   37 1
    23   16   21 1
    24   17   18 1
    25   17   19 1
    26   17   38 1
    27   18   39 1
    28   19   20 1
    29   19   21 1
    30   19   40 1
    31   20   41 1
    32   21   22 1
    33   21   42 1
    34   22   23 ar
    35   22   31 ar
    36   23   24 ar
    37   23   43 1
    38   24   25 ar
    39   25   26 ar
    40   25   31 ar
    41   26   27 1
    42   26   28 ar
    43   27   44 1
    44   27   45 1
    45   28   29 ar
    46   28   47 1
    47   29   30 ar
    48   29   46 1
    49   30   31 ar
@<TRIPOS>SUBSTRUCTURE
     1 ACP         1 GROUP 0 A     ****
@<TRIPOS>MOLECULE
[[5-(6-amino-1,8-dihydropurine-6,8-diylium-7-id-9-yl)-3,4-dihydroxy-tetrahydrofuran-2-yl]methoxy-oxido-phosphoryl]oxy-[[hydroxy(oxido)phosphoryl]methyl]phosphinate
   47    49     1     0     0
SMALL
USER_CHARGES

@<TRIPOS>ATOM
      1 PG          7.1801   -1.2368   -5.9771 P.3       1 ACP        -1.2804
      2 O1G         8.1020   -0.2226   -6.6132 O.co2     1 ACP         0.3195
      3 O2G         5.8714   -1.6438   -6.6142 O.co2     1 ACP         0.3195
      4 O3G         8.0303   -2.5733   -5.5888 O.3       1 ACP         0.0326
      5 PB          5.7071   -1.5745   -3.0977 P.3       1 ACP        -1.2804
      6 O1B         5.6486   -0.7819   -1.8128 O.co2     1 ACP         0.3195
      7 O2B         6.1344   -3.0239   -3.1299 O.co2     1 ACP         0.3195
      8 C3B         6.8027   -0.6529   -4.2657 C.3       1 ACP         0.8942
      9 PA          2.8591   -2.1299   -3.7201 P.3       1 ACP        -1.1062
     10 O1A         3.0727   -3.6280   -3.7234 O.co2     1 ACP         0.3195
     11 O2A         1.8686   -1.4903   -4.6689 O.co2     1 ACP         0.3195
     12 O3A         4.3077   -1.4018   -3.9162 O.3       1 ACP         0.4672
     13 O5'         2.5237   -1.6631   -2.1889 O.3       1 ACP         0.1618
     14 C5'         2.2816   -0.2918   -1.9206 C.3       1 ACP         0.1504
     15 C4'         2.7248    0.0226   -0.4980 C.3       1 ACP         0.1111
     16 O4'         2.4697    1.4219   -0.2462 O.3       1 ACP        -0.1436
     17 C3'         1.9404   -0.7419    0.5596 C.3       1 ACP         0.1111
     18 O3'         2.7418   -0.8086    1.7389 O.3       1 ACP        -0.2728
     19 C2'         0.7477    0.1630    0.7858 C.3       1 ACP         0.1111
     20 O2'         0.1373   -0.0577    2.0407 O.3       1 ACP        -0.2728
     21 C1'         1.3733    1.5427    0.6747 C.3       1 ACP         0.2693
     22 N9          0.4520    2.5240    0.1767 N.pl3     1 ACP        -0.3222
     23 C8         -0.7463    2.2774   -0.7501 C.ar      1 ACP         0.1640
     24 N7         -1.3714    3.4419   -0.9948 N.2       1 ACP        -0.1640
     25 C5         -0.6104    4.3223   -0.2723 C.ar      1 ACP         0.0820
     26 C6         -0.9062    5.7820   -0.2194 C.ar      1 ACP         0.1640
     27 N6         -1.9385    6.2713   -0.8881 N.pl3     1 ACP        -0.4916
     28 N1         -0.0613    6.4906    0.5336 N.pl3     1 ACP        -0.4390
     29 C2          1.0416    5.8662    1.2291 C.ar      1 ACP         0.5691
     30 N3          1.3146    4.5989    1.1954 N.ar      1 ACP        -0.4283
     31 C4          0.4541    3.8697    0.4273 C.ar      1 ACP         0.2226
     32 HOG3        8.4857   -3.0630   -6.3065 H         1 ACP         0.2010
     33 H3B1        6.3689    0.3472   -4.3753 H         1 ACP        -0.0393
     34 H3B2        7.7650   -0.5383   -3.7546 H         1 ACP        -0.0393
     35 H5'1        2.8429    0.3140   -2.6391 H         1 ACP        -0.0393
     36 H5'2        1.2125   -0.0906   -2.0420 H         1 ACP        -0.0393
     37 H4'         3.8046   -0.1390   -0.4011 H         1 ACP        -0.0393
     38 H3'         1.6787   -1.7627    0.2719 H         1 ACP        -0.0393
     39 HO3'        2.2231   -1.2979    2.3952 H         1 ACP         0.2010
     40 H2'         0.0002   -0.0084   -0.0014 H         1 ACP        -0.0393
     41 HO2'       -0.6132    0.5577    2.1063 H         1 ACP         0.2010
     42 H1'         1.7718    1.9211    1.6015 H         1 ACP        -0.0393
     43 H8         -1.1244    1.3534   -1.1987 H         1 ACP         0.0000
     44 HN61       -2.5259    5.6573   -1.4336 H         1 ACP         0.2048
     45 HN62       -2.1416    7.2600   -0.8539 H         1 ACP         0.2048
     46 H2          1.6509    6.5764    1.8088 H         1 ACP        -0.1292
     47 H47        -0.2190    7.4917    0.6033 H         1 ACP         0.2048
@<TRIPOS>BOND
     1    1    2 2
     2    1    3 1
     3    1    4 1
     4    1    8 1
     5    4   32 1
     6    5    6 2
     7    5    7 1
     8    5    8 1
     9    5   12 1
    10    8   33 1
    11    8   34 1
    12    9   10 2
    13    9   11 1
    14    9   12 1
    15    9   13 1
    16   13   14 1
    17   14   15 1
    18   14   35 1
    19   14   36 1
    20   15   16 1
    21   15   17 1
    22   15   37 1
    23   16   21 1
    24   17   18 1
    25   17   19 1
    26   17   38 1
    27   18   39 1
    28   19   20 1
    29   19   21 1
    30   19   40 1
    31   20   41 1
    32   21   22 1
    33   21   42 1
    34   22   23 ar
    35   22   31 ar
    36   23   24 ar
    37   23   43 1
    38   24   25 ar
    39   25   26 ar
    40   25   31 ar
    41   26   27 1
    42   26   28 ar
    43   27   44 1
    44   27   45 1
    45   28   29 ar
    46   28   47 1
    47   29   30 ar
    48   29   46 1
    49   30   31 ar
@<TRIPOS>SUBSTRUCTURE
     1 ACP         1 GROUP 0 A     ****
@<TRIPOS>MOLECULE
[[5-(6-amino-1,8-dihydropurine-6,8-diylium-7-id-9-yl)-3,4-dihydroxy-tetrahydrofuran-2-yl]methoxy-oxido-phosphoryl]oxy-[[hydroxy(oxido)phosphoryl]methyl]phosphinate
   47    49     1     0     0
SMALL
USER_CHARGES

@<TRIPOS>ATOM
      1 PG         -4.0963   -5.2455    7.5598 P.3       1 ACP        -1.2804
      2 O1G        -5.5449   -5.6483    7.7085 O.co2     1 ACP         0.3195
      3 O2G        -3.6616   -3.7980    7.5514 O.co2     1 ACP         0.3195
      4 O3G        -3.1904   -6.0751    8.6326 O.3       1 ACP         0.0326
      5 PB         -1.7212   -5.8117    5.4119 P.3       1 ACP        -1.2804
      6 O1B        -1.5892   -6.5944    4.1264 O.co2     1 ACP         0.3195
      7 O2B        -0.8068   -6.0441    6.5926 O.co2     1 ACP         0.3195
      8 C3B        -3.4563   -6.0228    6.0112 C.3       1 ACP         0.8942
      9 PA         -0.6036   -3.1462    4.7389 P.3       1 ACP        -1.1062
     10 O1A         0.4415   -3.2242    5.8304 O.co2     1 ACP         0.3195
     11 O2A        -1.2428   -1.8231    4.3766 O.co2     1 ACP         0.3195
     12 O3A        -1.7885   -4.2165    5.0818 O.3       1 ACP         0.4672
     13 O5'         0.0099   -3.8403    3.3910 O.3       1 ACP         0.1618
     14 C5'        -0.7840   -3.8935    2.2172 C.3       1 ACP         0.1504
     15 C4'        -0.0724   -3.1466    1.1027 C.3       1 ACP         0.1111
     16 O4'        -0.8674   -3.1929   -0.0945 O.3       1 ACP        -0.1436
     17 C3'         0.1338   -1.6715    1.4027 C.3       1 ACP         0.1111
     18 O3'         1.2893   -1.4445    2.1808 O.3       1 ACP        -0.2728
     19 C2'         0.2158   -1.0724    0.0128 C.3       1 ACP         0.1111
     20 O2'         1.5141   -1.2448   -0.5513 O.3       1 ACP        -0.2728
     21 C1'        -0.7897   -1.9176   -0.7583 C.3       1 ACP         0.2693
     22 N9         -2.1040   -1.3333   -0.7704 N.pl3     1 ACP        -0.3222
     23 C8         -3.2124   -1.5345    0.2719 C.ar      1 ACP         0.1640
     24 N7         -4.2964   -0.8234   -0.0828 N.2       1 ACP        -0.1640
     25 C5         -3.8754   -0.2386   -1.2478 C.ar      1 ACP         0.0820
     26 C6         -4.7432    0.6719   -2.0470 C.ar      1 ACP         0.1640
     27 N6         -5.9725    0.9415   -1.6366 N.pl3     1 ACP        -0.4916
     28 N1         -4.1703    1.1517   -3.1536 N.pl3     1 ACP        -0.4390
     29 C2         -2.8174    0.7994   -3.5215 C.ar      1 ACP         0.5691
     30 N3         -2.0475    0.0097   -2.8393 N.ar      1 ACP        -0.4283
     31 C4         -2.6278   -0.4836   -1.7071 C.ar      1 ACP         0.2226
     32 HOG3       -3.3836   -5.9696    9.5885 H         1 ACP         0.2010
     33 H3B1       -4.1089   -5.6724    5.2039 H         1 ACP        -0.0393
     34 H3B2       -3.6138   -7.1022    6.1144 H         1 ACP        -0.0393
     35 H5'1       -0.9358   -4.9414    1.9395 H         1 ACP        -0.0393
     36 H5'2       -1.7558   -3.4349    2.4258 H         1 ACP        -0.0393
     37 H4'         0.8883   -3.6447    0.8783 H         1 ACP        -0.0393
     38 H3'        -0.7368   -1.2359    1.9871 H         1 ACP        -0.0393
     39 HO3'        1.3407   -0.4871    2.3218 H         1 ACP         0.2010
     40 H2'        -0.0343   -0.0280    0.0196 H         1 ACP        -0.0393
     41 HO2'        2.1443   -0.7955    0.0378 H         1 ACP         0.2010
     42 H1'        -0.5175   -2.1046   -1.7826 H         1 ACP        -0.0393
     43 H8         -3.2310   -2.1319    1.1889 H         1 ACP         0.0000
     44 HN61       -6.3230    0.5316   -0.7829 H         1 ACP         0.2048
     45 HN62       -6.5628    1.5584   -2.1760 H         1 ACP         0.2048
     46 H2         -2.4822    1.2710   -4.4579 H         1 ACP        -0.1292
     47 H47        -4.7200    1.7780   -3.7346 H         1 ACP         0.2048
@<TRIPOS>BOND
     1    1    2 2
     2    1    3 1
     3    1    4 1
     4    1    8 1
     5    4   32 1
     6    5    6 2
     7    5    7 1
     8    5    8 1
     9    5   12 1
    10    8   33 1
    11    8   34 1
    12    9   10 2
    13    9   11 1
    14    9   12 1
    15    9   13 1
    16   13   14 1
    17   14   15 1
    18   14   35 1
    19   14   36 1
    20   15   16 1
    21   15   17 1
    22   15   37 1
    23   16   21 1
    24   17   18 1
    25   17   19 1
    26   17   38 1
    27   18   39 1
    28   19   20 1
    29   19   21 1
    30   19   40 1
    31   20   41 1
    32   21   22 1
    33   21   42 1
    34   22   23 ar
    35   22   31 ar
    36   23   24 ar
    37   23   43 1
    38   24   25 ar
    39   25   26 ar
    40   25   31 ar
    41   26   27 1
    42   26   28 ar
    43   27   44 1
    44   27   45 1
    45   28   29 ar
    46   28   47 1
    47   29   30 ar
    48   29   46 1
    49   30   31 ar
@<TRIPOS>SUBSTRUCTURE
     1 ACP         1 GROUP 0 A     ****
@<TRIPOS>MOLECULE
[[5-(6-amino-1,8-dihydropurine-6,8-diylium-7-id-9-yl)-3,4-dihydroxy-tetrahydrofuran-2-yl]methoxy-oxido-phosphoryl]oxy-[[hydroxy(oxido)phosphoryl]methyl]phosphinate
   47    49     1     0     0
SMALL
USER_CHARGES

@<TRIPOS>ATOM
      1 PG          2.5005   -4.8183    1.6998 P.3       1 ACP        -1.2804
      2 O1G         2.3704   -4.6603    3.1968 O.co2     1 ACP         0.3195
      3 O2G         3.5483   -4.0773    0.9017 O.co2     1 ACP         0.3195
      4 O3G         2.5582   -6.4047    1.3255 O.3       1 ACP         0.0326
      5 PB          0.5304   -4.4846   -0.8659 P.3       1 ACP        -1.2804
      6 O1B        -0.9161   -4.1029   -1.0767 O.co2     1 ACP         0.3195
      7 O2B         1.1033   -5.7837   -1.3840 O.co2     1 ACP         0.3195
      8 C3B         0.8576   -4.4264    0.9517 C.3       1 ACP         0.8942
      9 PA          2.0054   -2.7672   -2.7847 P.3       1 ACP        -1.1062
     10 O1A         0.8095   -2.2589   -3.5600 O.co2     1 ACP         0.3195
     11 O2A         2.8957   -3.8468   -3.3611 O.co2     1 ACP         0.3195
     12 O3A         1.4970   -3.2488   -1.3094 O.3       1 ACP         0.4672
     13 O5'         2.9202   -1.4821   -2.3524 O.3       1 ACP         0.1618
     14 C5'         2.2816   -0.2918   -1.9206 C.3       1 ACP         0.1504
     15 C4'         2.7248    0.0226   -0.4980 C.3       1 ACP         0.1111
     16 O4'         2.4697    1.4219   -0.2462 O.3       1 ACP        -0.1436
     17 C3'         1.9404   -0.7419    0.5596 C.3       1 ACP         0.1111
     18 O3'         2.7418   -0.8086    1.7389 O.3       1 ACP        -0.2728
     19 C2'         0.7477    0.1630    0.7858 C.3       1 ACP         0.1111
     20 O2'         0.1373   -0.0577    2.0407 O.3       1 ACP        -0.2728
     21 C1'         1.3733    1.5427    0.6747 C.3       1 ACP         0.2693
     22 N9          0.4520    2.5240    0.1767 N.pl3     1 ACP        -0.3222
     23 C8          0.1798    2.8712   -1.2933 C.ar      1 ACP         0.1640
     24 N7         -0.7494    3.8400   -1.3610 N.2       1 ACP        -0.1640
     25 C5         -1.0173    4.0603   -0.0358 C.ar      1 ACP         0.0820
     26 C6         -2.0105    5.0717    0.4241 C.ar      1 ACP         0.1640
     27 N6         -2.6723    5.7982   -0.4628 N.pl3     1 ACP        -0.4916
     28 N1         -2.1445    5.1522    1.7502 N.pl3     1 ACP        -0.4390
     29 C2         -1.3755    4.3143    2.6426 C.ar      1 ACP         0.5691
     30 N3         -0.5075    3.4292    2.2616 N.ar      1 ACP        -0.4283
     31 C4         -0.3667    3.3425    0.9070 C.ar      1 ACP         0.2226
     32 HOG3        3.2848   -6.9474    1.6994 H         1 ACP         0.2010
     33 H3B1        0.6094   -3.4110    1.2800 H         1 ACP        -0.0393
     34 H3B2        0.1330   -5.1061    1.4137 H         1 ACP        -0.0393
     35 H5'1        2.5581    0.5235   -2.5966 H         1 ACP        -0.0393
     36 H5'2        1.1974   -0.4370   -1.9607 H         1 ACP        -0.0393
     37 H4'         3.8046   -0.1390   -0.4011 H         1 ACP        -0.0393
     38 H3'         1.6787   -1.7627    0.2719 H         1 ACP        -0.0393
     39 HO3'        2.2231   -1.2979    2.3952 H         1 ACP         0.2010
     40 H2'         0.0002   -0.0084   -0.0014 H         1 ACP        -0.0393
     41 HO2'       -0.1554   -0.9852    2.0577 H         1 ACP         0.2010
     42 H1'         1.7718    1.9211    1.6015 H         1 ACP        -0.0393
     43 H8          0.6089    2.4651   -2.2147 H         1 ACP         0.0000
     44 HN61       -2.5055    5.6680   -1.4503 H         1 ACP         0.2048
     45 HN62       -3.3462    6.4841   -0.1542 H         1 ACP         0.2048
     46 H2         -1.5932    4.4937    3.7066 H         1 ACP        -0.1292
     47 H47        -2.8098    5.8270    2.1160 H         1 ACP         0.2048
@<TRIPOS>BOND
     1    1    2 2
     2    1    3 1
     3    1    4 1
     4    1    8 1
     5    4   32 1
     6    5    6 2
     7    5    7 1
     8    5    8 1
     9    5   12 1
    10    8   33 1
    11    8   34 1
    12    9   10 2
    13    9   11 1
    14    9   12 1
    15    9   13 1
    16   13   14 1
    17   14   15 1
    18   14   35 1
    19   14   36 1
    20   15   16 1
    21   15   17 1
    22   15   37 1
    23   16   21 1
    24   17   18 1
    25   17   19 1
    26   17   38 1
    27   18   39 1
    28   19   20 1
    29   19   21 1
    30   19   40 1
    31   20   41 1
    32   21   22 1
    33   21   42 1
    34   22   23 ar
    35   22   31 ar
    36   23   24 ar
    37   23   43 1
    38   24   25 ar
    39   25   26 ar
    40   25   31 ar
    41   26   27 1
    42   26   28 ar
    43   27   44 1
    44   27   45 1
    45   28   29 ar
    46   28   47 1
    47   29   30 ar
    48   29   46 1
    49   30   31 ar
@<TRIPOS>SUBSTRUCTURE
     1 ACP         1 GROUP 0 A     ****
@<TRIPOS>MOLECULE
[[5-(6-amino-1,8-dihydropurine-6,8-diylium-7-id-9-yl)-3,4-dihydroxy-tetrahydrofuran-2-yl]methoxy-oxido-phosphoryl]oxy-[[hydroxy(oxido)phosphoryl]methyl]phosphinate
   47    49     1     0     0
SMALL
USER_CHARGES

@<TRIPOS>ATOM
      1 PG         -2.2544   -8.8248    3.5564 P.3       1 ACP        -1.2804
      2 O1G        -2.4091  -10.3167    3.7385 O.co2     1 ACP         0.3195
      3 O2G        -1.5813   -8.2291    2.3414 O.co2     1 ACP         0.3195
      4 O3G        -3.6967   -8.0986    3.7852 O.3       1 ACP         0.0326
      5 PB         -0.9712   -6.3807    5.2754 P.3       1 ACP        -1.2804
      6 O1B        -0.2693   -6.2460    6.6065 O.co2     1 ACP         0.3195
      7 O2B        -2.2112   -5.5861    4.9359 O.co2     1 ACP         0.3195
      8 C3B        -1.3842   -8.1672    5.0472 C.3       1 ACP         0.8942
      9 PA          1.1132   -5.0167    3.6625 P.3       1 ACP        -1.1062
     10 O1A         1.7792   -5.3555    2.3467 O.co2     1 ACP         0.3195
     11 O2A         1.9427   -4.6574    4.8763 O.co2     1 ACP         0.3195
     12 O3A         0.1118   -6.2424    4.0646 O.3       1 ACP         0.4672
     13 O5'         0.0099   -3.8403    3.3910 O.3       1 ACP         0.1618
     14 C5'        -0.7840   -3.8935    2.2172 C.3       1 ACP         0.1504
     15 C4'        -0.0724   -3.1466    1.1027 C.3       1 ACP         0.1111
     16 O4'        -0.8674   -3.1929   -0.0945 O.3       1 ACP        -0.1436
     17 C3'         0.1338   -1.6715    1.4027 C.3       1 ACP         0.1111
     18 O3'         1.2893   -1.4445    2.1808 O.3       1 ACP        -0.2728
     19 C2'         0.2158   -1.0724    0.0128 C.3       1 ACP         0.1111
     20 O2'         1.5141   -1.2448   -0.5513 O.3       1 ACP        -0.2728
     21 C1'        -0.7897   -1.9176   -0.7583 C.3       1 ACP         0.2693
     22 N9         -2.1040   -1.3333   -0.7704 N.pl3     1 ACP        -0.3222
     23 C8         -3.2124   -1.5345    0.2719 C.ar      1 ACP         0.1640
     24 N7         -4.2964   -0.8234   -0.0828 N.2       1 ACP        -0.1640
     25 C5         -3.8754   -0.2386   -1.2478 C.ar      1 ACP         0.0820
     26 C6         -4.7432    0.6719   -2.0470 C.ar      1 ACP         0.1640
     27 N6         -5.9725    0.9415   -1.6366 N.pl3     1 ACP        -0.4916
     28 N1         -4.1703    1.1517   -3.1536 N.pl3     1 ACP        -0.4390
     29 C2         -2.8174    0.7994   -3.5215 C.ar      1 ACP         0.5691
     30 N3         -2.0475    0.0097   -2.8393 N.ar      1 ACP        -0.4283
     31 C4         -2.6278   -0.4836   -1.7071 C.ar      1 ACP         0.2226
     32 HOG3       -4.4435   -8.3471    3.1998 H         1 ACP         0.2010
     33 H3B1       -0.4381   -8.7159    5.1127 H         1 ACP        -0.0393
     34 H3B2       -1.9893   -8.4533    5.9146 H         1 ACP        -0.0393
     35 H5'1       -0.9358   -4.9414    1.9395 H         1 ACP        -0.0393
     36 H5'2       -1.7558   -3.4349    2.4258 H         1 ACP        -0.0393
     37 H4'         0.8883   -3.6447    0.8783 H         1 ACP        -0.0393
     38 H3'        -0.7368   -1.2359    1.9871 H         1 ACP        -0.0393
     39 HO3'        1.1625   -1.9325    3.0084 H         1 ACP         0.2010
     40 H2'        -0.0343   -0.0280    0.0196 H         1 ACP        -0.0393
     41 HO2'        2.1443   -0.7955    0.0378 H         1 ACP         0.2010
     42 H1'        -0.5175   -2.1046   -1.7826 H         1 ACP        -0.0393
     43 H8         -3.2310   -2.1319    1.1889 H         1 ACP         0.0000
     44 HN61       -6.3230    0.5316   -0.7829 H         1 ACP         0.2048
     45 HN62       -6.5628    1.5584   -2.1760 H         1 ACP         0.2048
     46 H2         -2.4822    1.2710   -4.4579 H         1 ACP        -0.1292
     47 H47        -4.7200    1.7780   -3.7346 H         1 ACP         0.2048
@<TRIPOS>BOND
     1    1    2 2
     2    1    3 1
     3    1    4 1
     4    1    8 1
     5    4   32 1
     6    5    6 2
     7    5    7 1
     8    5    8 1
     9    5   12 1
    10    8   33 1
    11    8   34 1
    12    9   10 2
    13    9   11 1
    14    9   12 1
    15    9   13 1
    16   13   14 1
    17   14   15 1
    18   14   35 1
    19   14   36 1
    20   15   16 1
    21   15   17 1
    22   15   37 1
    23   16   21 1
    24   17   18 1
    25   17   19 1
    26   17   38 1
    27   18   39 1
    28   19   20 1
    29   19   21 1
    30   19   40 1
    31   20   41 1
    32   21   22 1
    33   21   42 1
    34   22   23 ar
    35   22   31 ar
    36   23   24 ar
    37   23   43 1
    38   24   25 ar
    39   25   26 ar
    40   25   31 ar
    41   26   27 1
    42   26   28 ar
    43   27   44 1
    44   27   45 1
    45   28   29 ar
    46   28   47 1
    47   29   30 ar
    48   29   46 1
    49   30   31 ar
@<TRIPOS>SUBSTRUCTURE
     1 ACP         1 GROUP 0 A     ****
@<TRIPOS>MOLECULE
[[5-(6-amino-1,8-dihydropurine-6,8-diylium-7-id-9-yl)-3,4-dihydroxy-tetrahydrofuran-2-yl]methoxy-oxido-phosphoryl]oxy-[[hydroxy(oxido)phosphoryl]methyl]phosphinate
   47    49     1     0     0
SMALL
USER_CHARGES

@<TRIPOS>ATOM
      1 PG         -1.1176   -1.3711   -6.8940 P.3       1 ACP        -1.2804
      2 O1G        -1.7941   -0.2323   -7.6208 O.co2     1 ACP         0.3195
      3 O2G        -1.7623   -2.0704   -5.7195 O.co2     1 ACP         0.3195
      4 O3G        -0.6172   -2.4836   -7.9765 O.3       1 ACP         0.0326
      5 PB          1.7357   -1.8251   -5.4014 P.3       1 ACP        -1.2804
      6 O1B         2.9625   -0.9848   -5.1341 O.co2     1 ACP         0.3195
      7 O2B         1.8124   -3.1581   -6.1094 O.co2     1 ACP         0.3195
      8 C3B         0.5397   -0.7736   -6.3385 C.3       1 ACP         0.8942
      9 PA          1.2676   -2.6330   -2.5845 P.3       1 ACP        -1.1062
     10 O1A         1.8014   -4.0298   -2.8163 O.co2     1 ACP         0.3195
     11 O2A         0.1253   -2.3943   -1.6209 O.co2     1 ACP         0.3195
     12 O3A         0.8686   -1.9867   -4.0302 O.3       1 ACP         0.4672
     13 O5'         2.5237   -1.6631   -2.1889 O.3       1 ACP         0.1618
     14 C5'         2.2816   -0.2918   -1.9206 C.3       1 ACP         0.1504
     15 C4'         2.7248    0.0226   -0.4980 C.3       1 ACP         0.1111
     16 O4'         2.4697    1.4219   -0.2462 O.3       1 ACP        -0.1436
     17 C3'         1.9404   -0.7419    0.5596 C.3       1 ACP         0.1111
     18 O3'         2.7418   -0.8086    1.7389 O.3       1 ACP        -0.2728
     19 C2'         0.7477    0.1630    0.7858 C.3       1 ACP         0.1111
     20 O2'         0.1373   -0.0577    2.0407 O.3       1 ACP        -0.2728
     21 C1'         1.3733    1.5427    0.6747 C.3       1 ACP         0.2693
     22 N9          0.4520    2.5240    0.1767 N.pl3     1 ACP        -0.3222
     23 C8         -1.0660    2.5608    0.3999 C.ar      1 ACP         0.1640
     24 N7         -1.5852    3.6333   -0.2221 N.2       1 ACP        -0.1640
     25 C5         -0.4682    4.1996   -0.7771 C.ar      1 ACP         0.0820
     26 C6         -0.5216    5.4476   -1.5899 C.ar      1 ACP         0.1640
     27 N6         -1.6813    6.0510   -1.7982 N.pl3     1 ACP        -0.4916
     28 N1          0.6621    5.8575   -2.0523 N.pl3     1 ACP        -0.4390
     29 C2          1.8795    5.1301   -1.7717 C.ar      1 ACP         0.5691
     30 N3          1.9458    4.0434   -1.0670 N.ar      1 ACP        -0.4283
     31 C4          0.7388    3.6199   -0.5917 C.ar      1 ACP         0.2226
     32 HOG3       -1.2875   -2.9138   -8.5490 H         1 ACP         0.2010
     33 H3B1        0.3513    0.1105   -5.7193 H         1 ACP        -0.0393
     34 H3B2        1.0687   -0.4373   -7.2371 H         1 ACP        -0.0393
     35 H5'1        2.8429    0.3140   -2.6391 H         1 ACP        -0.0393
     36 H5'2        1.2125   -0.0906   -2.0420 H         1 ACP        -0.0393
     37 H4'         3.8046   -0.1390   -0.4011 H         1 ACP        -0.0393
     38 H3'         1.6787   -1.7627    0.2719 H         1 ACP        -0.0393
     39 HO3'        2.2231   -1.2979    2.3952 H         1 ACP         0.2010
     40 H2'         0.0002   -0.0084   -0.0014 H         1 ACP        -0.0393
     41 HO2'       -0.1554   -0.9852    2.0577 H         1 ACP         0.2010
     42 H1'         1.7718    1.9211    1.6015 H         1 ACP        -0.0393
     43 H8         -1.7235    1.8833    0.9537 H         1 ACP         0.0000
     44 HN61       -2.5296    5.6672   -1.4072 H         1 ACP         0.2048
     45 HN62       -1.7205    6.8969   -2.3483 H         1 ACP         0.2048
     46 H2          2.7750    5.5878   -2.2190 H         1 ACP        -0.1292
     47 H47         0.6808    6.7046   -2.6128 H         1 ACP         0.2048
@<TRIPOS>BOND
     1    1    2 2
     2    1    3 1
     3    1    4 1
     4    1    8 1
     5    4   32 1
     6    5    6 2
     7    5    7 1
     8    5    8 1
     9    5   12 1
    10    8   33 1
    11    8   34 1
    12    9   10 2
    13    9   11 1
    14    9   12 1
    15    9   13 1
    16   13   14 1
    17   14   15 1
    18   14   35 1
    19   14   36 1
    20   15   16 1
    21   15   17 1
    22   15   37 1
    23   16   21 1
    24   17   18 1
    25   17   19 1
    26   17   38 1
    27   18   39 1
    28   19   20 1
    29   19   21 1
    30   19   40 1
    31   20   41 1
    32   21   22 1
    33   21   42 1
    34   22   23 ar
    35   22   31 ar
    36   23   24 ar
    37   23   43 1
    38   24   25 ar
    39   25   26 ar
    40   25   31 ar
    41   26   27 1
    42   26   28 ar
    43   27   44 1
    44   27   45 1
    45   28   29 ar
    46   28   47 1
    47   29   30 ar
    48   29   46 1
    49   30   31 ar
@<TRIPOS>SUBSTRUCTURE
     1 ACP         1 GROUP 0 A     ****
@<TRIPOS>MOLECULE
[[5-(6-amino-1,8-dihydropurine-6,8-diylium-7-id-9-yl)-3,4-dihydroxy-tetrahydrofuran-2-yl]methoxy-oxido-phosphoryl]oxy-[[hydroxy(oxido)phosphoryl]methyl]phosphinate
   47    49     1     0     0
SMALL
USER_CHARGES

@<TRIPOS>ATOM
      1 PG          1.8810   -2.2098   -6.9194 P.3       1 ACP        -1.2804
      2 O1G         2.5385   -1.4807   -8.0679 O.co2     1 ACP         0.3195
      3 O2G         1.0648   -1.4886   -5.8717 O.co2     1 ACP         0.3195
      4 O3G         1.0240   -3.4710   -7.4980 O.3       1 ACP         0.0326
      5 PB          4.6694   -2.3695   -5.2537 P.3       1 ACP        -1.2804
      6 O1B         5.4265   -1.6480   -6.3441 O.co2     1 ACP         0.3195
      7 O2B         5.3234   -3.4092   -4.3731 O.co2     1 ACP         0.3195
      8 C3B         3.1950   -3.1617   -6.0364 C.3       1 ACP         0.8942
      9 PA          4.4357   -0.0473   -3.4208 P.3       1 ACP        -1.1062
     10 O1A         5.0077    1.0009   -4.3502 O.co2     1 ACP         0.3195
     11 O2A         5.2684   -0.6124   -2.2904 O.co2     1 ACP         0.3195
     12 O3A         3.8786   -1.2888   -4.3238 O.3       1 ACP         0.4672
     13 O5'         3.0198    0.5138   -2.8245 O.3       1 ACP         0.1618
     14 C5'         2.2816   -0.2918   -1.9206 C.3       1 ACP         0.1504
     15 C4'         2.7248    0.0226   -0.4980 C.3       1 ACP         0.1111
     16 O4'         2.4697    1.4219   -0.2462 O.3       1 ACP        -0.1436
     17 C3'         1.9404   -0.7419    0.5596 C.3       1 ACP         0.1111
     18 O3'         2.7418   -0.8086    1.7389 O.3       1 ACP        -0.2728
     19 C2'         0.7477    0.1630    0.7858 C.3       1 ACP         0.1111
     20 O2'         0.1373   -0.0577    2.0407 O.3       1 ACP        -0.2728
     21 C1'         1.3733    1.5427    0.6747 C.3       1 ACP         0.2693
     22 N9          0.4520    2.5240    0.1767 N.pl3     1 ACP        -0.3222
     23 C8         -1.0247    2.3053   -0.1800 C.ar      1 ACP         0.1640
     24 N7         -1.5580    3.4612   -0.6116 N.2       1 ACP        -0.1640
     25 C5         -0.4873    4.3110   -0.5222 C.ar      1 ACP         0.0820
     26 C6         -0.5728    5.7505   -0.8981 C.ar      1 ACP         0.1640
     27 N6         -1.7163    6.2514   -1.3385 N.pl3     1 ACP        -0.4916
     28 N1          0.5667    6.4301   -0.7475 N.pl3     1 ACP        -0.4390
     29 C2          1.7697    5.7952   -0.2579 C.ar      1 ACP         0.5691
     30 N3          1.8633    4.5450    0.0742 N.ar      1 ACP        -0.4283
     31 C4          0.7014    3.8457   -0.0776 C.ar      1 ACP         0.2226
     32 HOG3        0.2964   -3.2912   -8.1308 H         1 ACP         0.2010
     33 H3B1        3.5801   -3.8893   -6.7595 H         1 ACP        -0.0393
     34 H3B2        2.6933   -3.7243   -5.2413 H         1 ACP        -0.0393
     35 H5'1        1.2153   -0.0781   -2.0454 H         1 ACP        -0.0393
     36 H5'2        2.4645   -1.3454   -2.1547 H         1 ACP        -0.0393
     37 H4'         3.8046   -0.1390   -0.4011 H         1 ACP        -0.0393
     38 H3'         1.6787   -1.7627    0.2719 H         1 ACP        -0.0393
     39 HO3'        2.2231   -1.2979    2.3952 H         1 ACP         0.2010
     40 H2'         0.0002   -0.0084   -0.0014 H         1 ACP        -0.0393
     41 HO2'       -0.6132    0.5577    2.1063 H         1 ACP         0.2010
     42 H1'         1.7718    1.9211    1.6015 H         1 ACP        -0.0393
     43 H8         -1.6458    1.4054   -0.1318 H         1 ACP         0.0000
     44 HN61       -2.5307    5.6598   -1.4199 H         1 ACP         0.2048
     45 HN62       -1.7773    7.2266   -1.5938 H         1 ACP         0.2048
     46 H2          2.6279    6.4808   -0.1872 H         1 ACP        -0.1292
     47 H47         0.5621    7.4166   -0.9900 H         1 ACP         0.2048
@<TRIPOS>BOND
     1    1    2 2
     2    1    3 1
     3    1    4 1
     4    1    8 1
     5    4   32 1
     6    5    6 2
     7    5    7 1
     8    5    8 1
     9    5   12 1
    10    8   33 1
    11    8   34 1
    12    9   10 2
    13    9   11 1
    14    9   12 1
    15    9   13 1
    16   13   14 1
    17   14   15 1
    18   14   35 1
    19   14   36 1
    20   15   16 1
    21   15   17 1
    22   15   37 1
    23   16   21 1
    24   17   18 1
    25   17   19 1
    26   17   38 1
    27   18   39 1
    28   19   20 1
    29   19   21 1
    30   19   40 1
    31   20   41 1
    32   21   22 1
    33   21   42 1
    34   22   23 ar
    35   22   31 ar
    36   23   24 ar
    37   23   43 1
    38   24   25 ar
    39   25   26 ar
    40   25   31 ar
    41   26   27 1
    42   26   28 ar
    43   27   44 1
    44   27   45 1
    45   28   29 ar
    46   28   47 1
    47   29   30 ar
    48   29   46 1
    49   30   31 ar
@<TRIPOS>SUBSTRUCTURE
     1 ACP         1 GROUP 0 A     ****
@<TRIPOS>MOLECULE
[[5-(6-amino-1,8-dihydropurine-6,8-diylium-7-id-9-yl)-3,4-dihydroxy-tetrahydrofuran-2-yl]methoxy-oxido-phosphoryl]oxy-[[hydroxy(oxido)phosphoryl]methyl]phosphinate
   47    49     1     0     0
SMALL
USER_CHARGES

@<TRIPOS>ATOM
      1 PG          3.2358    1.1595   -6.3130 P.3       1 ACP        -1.2804
      2 O1G         4.4622    1.9887   -6.0110 O.co2     1 ACP         0.3195
      3 O2G         2.1052    1.0065   -5.3218 O.co2     1 ACP         0.3195
      4 O3G         2.6283    1.5984   -7.7615 O.3       1 ACP         0.0326
      5 PB          4.7841   -1.6168   -5.6274 P.3       1 ACP        -1.2804
      6 O1B         6.0663   -0.8863   -5.3033 O.co2     1 ACP         0.3195
      7 O2B         4.7781   -3.0099   -6.2136 O.co2     1 ACP         0.3195
      8 C3B         3.8066   -0.5381   -6.7653 C.3       1 ACP         0.8942
      9 PA          3.9654   -2.1111   -2.8181 P.3       1 ACP        -1.1062
     10 O1A         5.0498   -1.2970   -2.1465 O.co2     1 ACP         0.3195
     11 O2A         4.0486   -3.6217   -2.8585 O.co2     1 ACP         0.3195
     12 O3A         3.7791   -1.5622   -4.3449 O.3       1 ACP         0.4672
     13 O5'         2.5237   -1.6631   -2.1889 O.3       1 ACP         0.1618
     14 C5'         2.2816   -0.2918   -1.9206 C.3       1 ACP         0.1504
     15 C4'         2.7248    0.0226   -0.4980 C.3       1 ACP         0.1111
     16 O4'         2.4697    1.4219   -0.2462 O.3       1 ACP        -0.1436
     17 C3'         1.9404   -0.7419    0.5596 C.3       1 ACP         0.1111
     18 O3'         2.7418   -0.8086    1.7389 O.3       1 ACP        -0.2728
     19 C2'         0.7477    0.1630    0.7858 C.3       1 ACP         0.1111
     20 O2'         0.1373   -0.0577    2.0407 O.3       1 ACP        -0.2728
     21 C1'         1.3733    1.5427    0.6747 C.3       1 ACP         0.2693
     22 N9          0.4520    2.5240    0.1767 N.pl3     1 ACP        -0.3222
     23 C8         -1.0660    2.5608    0.3999 C.ar      1 ACP         0.1640
     24 N7         -1.5852    3.6333   -0.2221 N.2       1 ACP        -0.1640
     25 C5         -0.4682    4.1996   -0.7771 C.ar      1 ACP         0.0820
     26 C6         -0.5216    5.4476   -1.5899 C.ar      1 ACP         0.1640
     27 N6         -1.6813    6.0510   -1.7982 N.pl3     1 ACP        -0.4916
     28 N1          0.6621    5.8575   -2.0523 N.pl3     1 ACP        -0.4390
     29 C2          1.8795    5.1301   -1.7717 C.ar      1 ACP         0.5691
     30 N3          1.9458    4.0434   -1.0670 N.ar      1 ACP        -0.4283
     31 C4          0.7388    3.6199   -0.5917 C.ar      1 ACP         0.2226
     32 HOG3        2.3400    2.5277   -7.8857 H         1 ACP         0.2010
     33 H3B1        4.4048   -0.4242   -7.6762 H         1 ACP        -0.0393
     34 H3B2        2.9103   -1.1092   -7.0316 H         1 ACP        -0.0393
     35 H5'1        2.8429    0.3140   -2.6391 H         1 ACP        -0.0393
     36 H5'2        1.2125   -0.0906   -2.0420 H         1 ACP        -0.0393
     37 H4'         3.8046   -0.1390   -0.4011 H         1 ACP        -0.0393
     38 H3'         1.6787   -1.7627    0.2719 H         1 ACP        -0.0393
     39 HO3'        2.2231   -1.2979    2.3952 H         1 ACP         0.2010
     40 H2'         0.0002   -0.0084   -0.0014 H         1 ACP        -0.0393
     41 HO2'       -0.1554   -0.9852    2.0577 H         1 ACP         0.2010
     42 H1'         1.7718    1.9211    1.6015 H         1 ACP        -0.0393
     43 H8         -1.7235    1.8833    0.9537 H         1 ACP         0.0000
     44 HN61       -2.5296    5.6672   -1.4072 H         1 ACP         0.2048
     45 HN62       -1.7205    6.8969   -2.3483 H         1 ACP         0.2048
     46 H2          2.7750    5.5878   -2.2190 H         1 ACP        -0.1292
     47 H47         0.6808    6.7046   -2.6128 H         1 ACP         0.2048
@<TRIPOS>BOND
     1    1    2 2
     2    1    3 1
     3    1    4 1
     4    1    8 1
     5    4   32 1
     6    5    6 2
     7    5    7 1
     8    5    8 1
     9    5   12 1
    10    8   33 1
    11    8   34 1
    12    9   10 2
    13    9   11 1
    14    9   12 1
    15    9   13 1
    16   13   14 1
    17   14   15 1
    18   14   35 1
    19   14   36 1
    20   15   16 1
    21   15   17 1
    22   15   37 1
    23   16   21 1
    24   17   18 1
    25   17   19 1
    26   17   38 1
    27   18   39 1
    28   19   20 1
    29   19   21 1
    30   19   40 1
    31   20   41 1
    32   21   22 1
    33   21   42 1
    34   22   23 ar
    35   22   31 ar
    36   23   24 ar
    37   23   43 1
    38   24   25 ar
    39   25   26 ar
    40   25   31 ar
    41   26   27 1
    42   26   28 ar
    43   27   44 1
    44   27   45 1
    45   28   29 ar
    46   28   47 1
    47   29   30 ar
    48   29   46 1
    49   30   31 ar
@<TRIPOS>SUBSTRUCTURE
     1 ACP         1 GROUP 0 A     ****
@<TRIPOS>MOLECULE
[[5-(6-amino-1,8-dihydropurine-6,8-diylium-7-id-9-yl)-3,4-dihydroxy-tetrahydrofuran-2-yl]methoxy-oxido-phosphoryl]oxy-[[hydroxy(oxido)phosphoryl]methyl]phosphinate
   47    49     1     0     0
SMALL
USER_CHARGES

@<TRIPOS>ATOM
      1 PG         -0.8606   -4.8036    6.8514 P.3       1 ACP        -1.2804
      2 O1G         0.1169   -4.8093    8.0035 O.co2     1 ACP         0.3195
      3 O2G        -2.1325   -3.9878    6.8808 O.co2     1 ACP         0.3195
      4 O3G        -0.0594   -4.5048    5.4626 O.3       1 ACP         0.0326
      5 PB         -2.5201   -7.0478    5.1827 P.3       1 ACP        -1.2804
      6 O1B        -3.8390   -6.3729    5.4790 O.co2     1 ACP         0.3195
      7 O2B        -2.4038   -8.5446    5.0087 O.co2     1 ACP         0.3195
      8 C3B        -1.3368   -6.5561    6.5139 C.3       1 ACP         0.8942
      9 PA         -2.2655   -6.0670    2.3934 P.3       1 ACP        -1.1062
     10 O1A        -3.4578   -5.1352    2.3983 O.co2     1 ACP         0.3195
     11 O2A        -2.3433   -7.4149    1.7098 O.co2     1 ACP         0.3195
     12 O3A        -1.7840   -6.2967    3.9369 O.3       1 ACP         0.4672
     13 O5'        -0.9728   -5.2427    1.8237 O.3       1 ACP         0.1618
     14 C5'        -0.7840   -3.8935    2.2172 C.3       1 ACP         0.1504
     15 C4'        -0.0724   -3.1466    1.1027 C.3       1 ACP         0.1111
     16 O4'        -0.8674   -3.1929   -0.0945 O.3       1 ACP        -0.1436
     17 C3'         0.1338   -1.6715    1.4027 C.3       1 ACP         0.1111
     18 O3'         1.2893   -1.4445    2.1808 O.3       1 ACP        -0.2728
     19 C2'         0.2158   -1.0724    0.0128 C.3       1 ACP         0.1111
     20 O2'         1.5141   -1.2448   -0.5513 O.3       1 ACP        -0.2728
     21 C1'        -0.7897   -1.9176   -0.7583 C.3       1 ACP         0.2693
     22 N9         -2.1040   -1.3333   -0.7704 N.pl3     1 ACP        -0.3222
     23 C8         -3.2124   -1.5345    0.2719 C.ar      1 ACP         0.1640
     24 N7         -4.2964   -0.8234   -0.0828 N.2       1 ACP        -0.1640
     25 C5         -3.8754   -0.2386   -1.2478 C.ar      1 ACP         0.0820
     26 C6         -4.7432    0.6719   -2.0470 C.ar      1 ACP         0.1640
     27 N6         -5.9725    0.9415   -1.6366 N.pl3     1 ACP        -0.4916
     28 N1         -4.1703    1.1517   -3.1536 N.pl3     1 ACP        -0.4390
     29 C2         -2.8174    0.7994   -3.5215 C.ar      1 ACP         0.5691
     30 N3         -2.0475    0.0097   -2.8393 N.ar      1 ACP        -0.4283
     31 C4         -2.6278   -0.4836   -1.7071 C.ar      1 ACP         0.2226
     32 HOG3        0.4326   -3.6603    5.3788 H         1 ACP         0.2010
     33 H3B1       -1.7459   -6.9454    7.4529 H         1 ACP        -0.0393
     34 H3B2       -0.4073   -7.0998    6.3114 H         1 ACP        -0.0393
     35 H5'1       -1.7614   -3.4427    2.4167 H         1 ACP        -0.0393
     36 H5'2       -0.1870   -3.8723    3.1344 H         1 ACP        -0.0393
     37 H4'         0.8883   -3.6447    0.8783 H         1 ACP        -0.0393
     38 H3'        -0.7368   -1.2359    1.9871 H         1 ACP        -0.0393
     39 HO3'        1.3407   -0.4871    2.3218 H         1 ACP         0.2010
     40 H2'        -0.0343   -0.0280    0.0196 H         1 ACP        -0.0393
     41 HO2'        2.1443   -0.7955    0.0378 H         1 ACP         0.2010
     42 H1'        -0.5175   -2.1046   -1.7826 H         1 ACP        -0.0393
     43 H8         -3.2310   -2.1319    1.1889 H         1 ACP         0.0000
     44 HN61       -6.5630    1.5580   -2.1762 H         1 ACP         0.2048
     45 HN62       -6.3231    0.5311   -0.7832 H         1 ACP         0.2048
     46 H2         -2.4822    1.2710   -4.4579 H         1 ACP        -0.1292
     47 H47        -4.7200    1.7780   -3.7346 H         1 ACP         0.2048
@<TRIPOS>BOND
     1    1    2 2
     2    1    3 1
     3    1    4 1
     4    1    8 1
     5    4   32 1
     6    5    6 2
     7    5    7 1
     8    5    8 1
     9    5   12 1
    10    8   33 1
    11    8   34 1
    12    9   10 2
    13    9   11 1
    14    9   12 1
    15    9   13 1
    16   13   14 1
    17   14   15 1
    18   14   35 1
    19   14   36 1
    20   15   16 1
    21   15   17 1
    22   15   37 1
    23   16   21 1
    24   17   18 1
    25   17   19 1
    26   17   38 1
    27   18   39 1
    28   19   20 1
    29   19   21 1
    30   19   40 1
    31   20   41 1
    32   21   22 1
    33   21   42 1
    34   22   23 ar
    35   22   31 ar
    36   23   24 ar
    37   23   43 1
    38   24   25 ar
    39   25   26 ar
    40   25   31 ar
    41   26   27 1
    42   26   28 ar
    43   27   44 1
    44   27   45 1
    45   28   29 ar
    46   28   47 1
    47   29   30 ar
    48   29   46 1
    49   30   31 ar
@<TRIPOS>SUBSTRUCTURE
     1 ACP         1 GROUP 0 A     ****
@<TRIPOS>MOLECULE
[[5-(6-amino-1,8-dihydropurine-6,8-diylium-7-id-9-yl)-3,4-dihydroxy-tetrahydrofuran-2-yl]methoxy-oxido-phosphoryl]oxy-[[hydroxy(oxido)phosphoryl]methyl]phosphinate
   47    49     1     0     0
SMALL
USER_CHARGES

@<TRIPOS>ATOM
      1 PG         -2.4531   -8.2333    3.0477 P.3       1 ACP        -1.2804
      2 O1G        -1.8249   -8.9415    1.8701 O.co2     1 ACP         0.3195
      3 O2G        -2.8704   -6.7821    2.9833 O.co2     1 ACP         0.3195
      4 O3G        -3.6921   -9.1266    3.6192 O.3       1 ACP         0.0326
      5 PB          0.4303   -7.7856    4.4833 P.3       1 ACP        -1.2804
      6 O1B         1.1608   -8.4801    3.3577 O.co2     1 ACP         0.3195
      7 O2B         0.9251   -7.8288    5.9107 O.co2     1 ACP         0.3195
      8 C3B        -1.3071   -8.4146    4.4851 C.3       1 ACP         0.8942
      9 PA          1.1132   -5.0167    3.6625 P.3       1 ACP        -1.1062
     10 O1A         1.7792   -5.3555    2.3467 O.co2     1 ACP         0.3195
     11 O2A         1.9427   -4.6574    4.8763 O.co2     1 ACP         0.3195
     12 O3A         0.1118   -6.2424    4.0646 O.3       1 ACP         0.4672
     13 O5'         0.0099   -3.8403    3.3910 O.3       1 ACP         0.1618
     14 C5'        -0.7840   -3.8935    2.2172 C.3       1 ACP         0.1504
     15 C4'        -0.0724   -3.1466    1.1027 C.3       1 ACP         0.1111
     16 O4'        -0.8674   -3.1929   -0.0945 O.3       1 ACP        -0.1436
     17 C3'         0.1338   -1.6715    1.4027 C.3       1 ACP         0.1111
     18 O3'         1.2893   -1.4445    2.1808 O.3       1 ACP        -0.2728
     19 C2'         0.2158   -1.0724    0.0128 C.3       1 ACP         0.1111
     20 O2'         1.5141   -1.2448   -0.5513 O.3       1 ACP        -0.2728
     21 C1'        -0.7897   -1.9176   -0.7583 C.3       1 ACP         0.2693
     22 N9         -2.1040   -1.3333   -0.7704 N.pl3     1 ACP        -0.3222
     23 C8         -3.2124   -1.5345    0.2719 C.ar      1 ACP         0.1640
     24 N7         -4.2964   -0.8234   -0.0828 N.2       1 ACP        -0.1640
     25 C5         -3.8754   -0.2386   -1.2478 C.ar      1 ACP         0.0820
     26 C6         -4.7432    0.6719   -2.0470 C.ar      1 ACP         0.1640
     27 N6         -5.9725    0.9415   -1.6366 N.pl3     1 ACP        -0.4916
     28 N1         -4.1703    1.1517   -3.1536 N.pl3     1 ACP        -0.4390
     29 C2         -2.8174    0.7994   -3.5215 C.ar      1 ACP         0.5691
     30 N3         -2.0475    0.0097   -2.8393 N.ar      1 ACP        -0.4283
     31 C4         -2.6278   -0.4836   -1.7071 C.ar      1 ACP         0.2226
     32 HOG3       -4.4408   -9.3269    3.0179 H         1 ACP         0.2010
     33 H3B1       -1.2487   -9.4888    4.6927 H         1 ACP        -0.0393
     34 H3B2       -1.8013   -7.9420    5.3411 H         1 ACP        -0.0393
     35 H5'1       -0.9358   -4.9414    1.9395 H         1 ACP        -0.0393
     36 H5'2       -1.7558   -3.4349    2.4258 H         1 ACP        -0.0393
     37 H4'         0.8883   -3.6447    0.8783 H         1 ACP        -0.0393
     38 H3'        -0.7368   -1.2359    1.9871 H         1 ACP        -0.0393
     39 HO3'        1.3407   -0.4871    2.3218 H         1 ACP         0.2010
     40 H2'        -0.0343   -0.0280    0.0196 H         1 ACP        -0.0393
     41 HO2'        2.1443   -0.7955    0.0378 H         1 ACP         0.2010
     42 H1'        -0.5175   -2.1046   -1.7826 H         1 ACP        -0.0393
     43 H8         -3.2310   -2.1319    1.1889 H         1 ACP         0.0000
     44 HN61       -6.3230    0.5316   -0.7829 H         1 ACP         0.2048
     45 HN62       -6.5628    1.5584   -2.1760 H         1 ACP         0.2048
     46 H2         -2.4822    1.2710   -4.4579 H         1 ACP        -0.1292
     47 H47        -4.7200    1.7780   -3.7346 H         1 ACP         0.2048
@<TRIPOS>BOND
     1    1    2 2
     2    1    3 1
     3    1    4 1
     4    1    8 1
     5    4   32 1
     6    5    6 2
     7    5    7 1
     8    5    8 1
     9    5   12 1
    10    8   33 1
    11    8   34 1
    12    9   10 2
    13    9   11 1
    14    9   12 1
    15    9   13 1
    16   13   14 1
    17   14   15 1
    18   14   35 1
    19   14   36 1
    20   15   16 1
    21   15   17 1
    22   15   37 1
    23   16   21 1
    24   17   18 1
    25   17   19 1
    26   17   38 1
    27   18   39 1
    28   19   20 1
    29   19   21 1
    30   19   40 1
    31   20   41 1
    32   21   22 1
    33   21   42 1
    34   22   23 ar
    35   22   31 ar
    36   23   24 ar
    37   23   43 1
    38   24   25 ar
    39   25   26 ar
    40   25   31 ar
    41   26   27 1
    42   26   28 ar
    43   27   44 1
    44   27   45 1
    45   28   29 ar
    46   28   47 1
    47   29   30 ar
    48   29   46 1
    49   30   31 ar
@<TRIPOS>SUBSTRUCTURE
     1 ACP         1 GROUP 0 A     ****
@<TRIPOS>MOLECULE
[[5-(6-amino-1,8-dihydropurine-6,8-diylium-7-id-9-yl)-3,4-dihydroxy-tetrahydrofuran-2-yl]methoxy-oxido-phosphoryl]oxy-[[hydroxy(oxido)phosphoryl]methyl]phosphinate
   47    49     1     0     0
SMALL
USER_CHARGES

@<TRIPOS>ATOM
      1 PG         -3.6714   -1.6016    5.1702 P.3       1 ACP        -1.2804
      2 O1G        -4.0908   -0.1749    5.4372 O.co2     1 ACP         0.3195
      3 O2G        -4.6741   -2.6896    4.8619 O.co2     1 ACP         0.3195
      4 O3G        -2.4930   -1.6180    4.0428 O.3       1 ACP         0.0326
      5 PB         -1.9337   -3.8596    6.7377 P.3       1 ACP        -1.2804
      6 O1B        -3.0721   -4.8515    6.6855 O.co2     1 ACP         0.3195
      7 O2B        -0.9396   -3.8352    7.8760 O.co2     1 ACP         0.3195
      8 C3B        -2.6683   -2.1687    6.6140 C.3       1 ACP         0.8942
      9 PA         -0.3451   -5.0629    4.5388 P.3       1 ACP        -1.1062
     10 O1A        -1.3600   -6.0957    4.0994 O.co2     1 ACP         0.3195
     11 O2A         0.8546   -5.4655    5.3689 O.co2     1 ACP         0.3195
     12 O3A        -1.1337   -3.8632    5.3171 O.3       1 ACP         0.4672
     13 O5'         0.1597   -4.2446    3.2157 O.3       1 ACP         0.1618
     14 C5'        -0.7840   -3.8935    2.2172 C.3       1 ACP         0.1504
     15 C4'        -0.0724   -3.1466    1.1027 C.3       1 ACP         0.1111
     16 O4'        -0.8674   -3.1929   -0.0945 O.3       1 ACP        -0.1436
     17 C3'         0.1338   -1.6715    1.4027 C.3       1 ACP         0.1111
     18 O3'         1.2893   -1.4445    2.1808 O.3       1 ACP        -0.2728
     19 C2'         0.2158   -1.0724    0.0128 C.3       1 ACP         0.1111
     20 O2'         1.5141   -1.2448   -0.5513 O.3       1 ACP        -0.2728
     21 C1'        -0.7897   -1.9176   -0.7583 C.3       1 ACP         0.2693
     22 N9         -2.1040   -1.3333   -0.7704 N.pl3     1 ACP        -0.3222
     23 C8         -3.2124   -1.5345    0.2719 C.ar      1 ACP         0.1640
     24 N7         -4.2964   -0.8234   -0.0828 N.2       1 ACP        -0.1640
     25 C5         -3.8754   -0.2386   -1.2478 C.ar      1 ACP         0.0820
     26 C6         -4.7432    0.6719   -2.0470 C.ar      1 ACP         0.1640
     27 N6         -5.9725    0.9415   -1.6366 N.pl3     1 ACP        -0.4916
     28 N1         -4.1703    1.1517   -3.1536 N.pl3     1 ACP        -0.4390
     29 C2         -2.8174    0.7994   -3.5215 C.ar      1 ACP         0.5691
     30 N3         -2.0475    0.0097   -2.8393 N.ar      1 ACP        -0.4283
     31 C4         -2.6278   -0.4836   -1.7071 C.ar      1 ACP         0.2226
     32 HOG3       -2.6876   -1.2434    3.1573 H         1 ACP         0.2010
     33 H3B1       -3.3068   -2.0418    7.4953 H         1 ACP        -0.0393
     34 H3B2       -1.8334   -1.4659    6.7106 H         1 ACP        -0.0393
     35 H5'1       -1.2472   -4.8069    1.8308 H         1 ACP        -0.0393
     36 H5'2       -1.5578   -3.2634    2.6671 H         1 ACP        -0.0393
     37 H4'         0.8883   -3.6447    0.8783 H         1 ACP        -0.0393
     38 H3'        -0.7368   -1.2359    1.9871 H         1 ACP        -0.0393
     39 HO3'        1.1625   -1.9325    3.0084 H         1 ACP         0.2010
     40 H2'        -0.0343   -0.0280    0.0196 H         1 ACP        -0.0393
     41 HO2'        2.1443   -0.7955    0.0378 H         1 ACP         0.2010
     42 H1'        -0.5175   -2.1046   -1.7826 H         1 ACP        -0.0393
     43 H8         -3.2310   -2.1319    1.1889 H         1 ACP         0.0000
     44 HN61       -6.3230    0.5316   -0.7829 H         1 ACP         0.2048
     45 HN62       -6.5628    1.5584   -2.1760 H         1 ACP         0.2048
     46 H2         -2.4822    1.2710   -4.4579 H         1 ACP        -0.1292
     47 H47        -4.7200    1.7780   -3.7346 H         1 ACP         0.2048
@<TRIPOS>BOND
     1    1    2 2
     2    1    3 1
     3    1    4 1
     4    1    8 1
     5    4   32 1
     6    5    6 2
     7    5    7 1
     8    5    8 1
     9    5   12 1
    10    8   33 1
    11    8   34 1
    12    9   10 2
    13    9   11 1
    14    9   12 1
    15    9   13 1
    16   13   14 1
    17   14   15 1
    18   14   35 1
    19   14   36 1
    20   15   16 1
    21   15   17 1
    22   15   37 1
    23   16   21 1
    24   17   18 1
    25   17   19 1
    26   17   38 1
    27   18   39 1
    28   19   20 1
    29   19   21 1
    30   19   40 1
    31   20   41 1
    32   21   22 1
    33   21   42 1
    34   22   23 ar
    35   22   31 ar
    36   23   24 ar
    37   23   43 1
    38   24   25 ar
    39   25   26 ar
    40   25   31 ar
    41   26   27 1
    42   26   28 ar
    43   27   44 1
    44   27   45 1
    45   28   29 ar
    46   28   47 1
    47   29   30 ar
    48   29   46 1
    49   30   31 ar
@<TRIPOS>SUBSTRUCTURE
     1 ACP         1 GROUP 0 A     ****
@<TRIPOS>MOLECULE
[[5-(6-amino-1,8-dihydropurine-6,8-diylium-7-id-9-yl)-3,4-dihydroxy-tetrahydrofuran-2-yl]methoxy-oxido-phosphoryl]oxy-[[hydroxy(oxido)phosphoryl]methyl]phosphinate
   47    49     1     0     0
SMALL
USER_CHARGES

@<TRIPOS>ATOM
      1 PG         -1.1318    0.4553   -5.7381 P.3       1 ACP        -1.2804
      2 O1G        -2.5754    0.0822   -5.4937 O.co2     1 ACP         0.3195
      3 O2G         0.0027   -0.5079   -5.4748 O.co2     1 ACP         0.3195
      4 O3G        -0.9785    1.0728   -7.2398 O.3       1 ACP         0.0326
      5 PB          0.8646    2.8320   -4.7682 P.3       1 ACP        -1.2804
      6 O1B         0.7488    4.0451   -3.8749 O.co2     1 ACP         0.3195
      7 O2B         1.3271    2.9314   -6.2036 O.co2     1 ACP         0.3195
      8 C3B        -0.7825    1.9947   -4.7787 C.3       1 ACP         0.8942
      9 PA          3.2331    1.6548   -3.4224 P.3       1 ACP        -1.1062
     10 O1A         3.3076    2.6238   -2.2625 O.co2     1 ACP         0.3195
     11 O2A         4.1918    1.7719   -4.5876 O.co2     1 ACP         0.3195
     12 O3A         1.7074    1.6637   -4.0049 O.3       1 ACP         0.4672
     13 O5'         3.2883    0.1336   -2.8242 O.3       1 ACP         0.1618
     14 C5'         2.2816   -0.2918   -1.9206 C.3       1 ACP         0.1504
     15 C4'         2.7248    0.0226   -0.4980 C.3       1 ACP         0.1111
     16 O4'         2.4697    1.4219   -0.2462 O.3       1 ACP        -0.1436
     17 C3'         1.9404   -0.7419    0.5596 C.3       1 ACP         0.1111
     18 O3'         2.7418   -0.8086    1.7389 O.3       1 ACP        -0.2728
     19 C2'         0.7477    0.1630    0.7858 C.3       1 ACP         0.1111
     20 O2'         0.1373   -0.0577    2.0407 O.3       1 ACP        -0.2728
     21 C1'         1.3733    1.5427    0.6747 C.3       1 ACP         0.2693
     22 N9          0.4520    2.5240    0.1767 N.pl3     1 ACP        -0.3222
     23 C8         -1.0247    2.3053   -0.1800 C.ar      1 ACP         0.1640
     24 N7         -1.5580    3.4612   -0.6116 N.2       1 ACP        -0.1640
     25 C5         -0.4873    4.3110   -0.5222 C.ar      1 ACP         0.0820
     26 C6         -0.5728    5.7505   -0.8981 C.ar      1 ACP         0.1640
     27 N6         -1.7163    6.2514   -1.3385 N.pl3     1 ACP        -0.4916
     28 N1          0.5667    6.4301   -0.7475 N.pl3     1 ACP        -0.4390
     29 C2          1.7697    5.7952   -0.2579 C.ar      1 ACP         0.5691
     30 N3          1.8633    4.5450    0.0742 N.ar      1 ACP        -0.4283
     31 C4          0.7014    3.8457   -0.0776 C.ar      1 ACP         0.2226
     32 HOG3       -1.2254    0.5101   -8.0044 H         1 ACP         0.2010
     33 H3B1       -1.0195    1.7616   -3.7346 H         1 ACP        -0.0393
     34 H3B2       -1.5041    2.7459   -5.1184 H         1 ACP        -0.0393
     35 H5'1        1.3500    0.2325   -2.1560 H         1 ACP        -0.0393
     36 H5'2        2.1267   -1.3683   -2.0444 H         1 ACP        -0.0393
     37 H4'         3.8046   -0.1390   -0.4011 H         1 ACP        -0.0393
     38 H3'         1.6787   -1.7627    0.2719 H         1 ACP        -0.0393
     39 HO3'        2.2231   -1.2979    2.3952 H         1 ACP         0.2010
     40 H2'         0.0002   -0.0084   -0.0014 H         1 ACP        -0.0393
     41 HO2'       -0.1554   -0.9852    2.0577 H         1 ACP         0.2010
     42 H1'         1.7718    1.9211    1.6015 H         1 ACP        -0.0393
     43 H8         -1.6458    1.4054   -0.1318 H         1 ACP         0.0000
     44 HN61       -2.5307    5.6598   -1.4199 H         1 ACP         0.2048
     45 HN62       -1.7773    7.2266   -1.5938 H         1 ACP         0.2048
     46 H2          2.6279    6.4808   -0.1872 H         1 ACP        -0.1292
     47 H47         0.5621    7.4166   -0.9900 H         1 ACP         0.2048
@<TRIPOS>BOND
     1    1    2 2
     2    1    3 1
     3    1    4 1
     4    1    8 1
     5    4   32 1
     6    5    6 2
     7    5    7 1
     8    5    8 1
     9    5   12 1
    10    8   33 1
    11    8   34 1
    12    9   10 2
    13    9   11 1
    14    9   12 1
    15    9   13 1
    16   13   14 1
    17   14   15 1
    18   14   35 1
    19   14   36 1
    20   15   16 1
    21   15   17 1
    22   15   37 1
    23   16   21 1
    24   17   18 1
    25   17   19 1
    26   17   38 1
    27   18   39 1
    28   19   20 1
    29   19   21 1
    30   19   40 1
    31   20   41 1
    32   21   22 1
    33   21   42 1
    34   22   23 ar
    35   22   31 ar
    36   23   24 ar
    37   23   43 1
    38   24   25 ar
    39   25   26 ar
    40   25   31 ar
    41   26   27 1
    42   26   28 ar
    43   27   44 1
    44   27   45 1
    45   28   29 ar
    46   28   47 1
    47   29   30 ar
    48   29   46 1
    49   30   31 ar
@<TRIPOS>SUBSTRUCTURE
     1 ACP         1 GROUP 0 A     ****
@<TRIPOS>MOLECULE
[[5-(6-amino-1,8-dihydropurine-6,8-diylium-7-id-9-yl)-3,4-dihydroxy-tetrahydrofuran-2-yl]methoxy-oxido-phosphoryl]oxy-[[hydroxy(oxido)phosphoryl]methyl]phosphinate
   47    49     1     0     0
SMALL
USER_CHARGES

@<TRIPOS>ATOM
      1 PG          1.8810   -2.2098   -6.9194 P.3       1 ACP        -1.2804
      2 O1G         1.2753   -1.2415   -5.9304 O.co2     1 ACP         0.3195
      3 O2G         1.0414   -3.2049   -7.6870 O.co2     1 ACP         0.3195
      4 O3G         2.8377   -1.3950   -7.9590 O.3       1 ACP         0.0326
      5 PB          4.6694   -2.3695   -5.2537 P.3       1 ACP        -1.2804
      6 O1B         5.4265   -1.6480   -6.3441 O.co2     1 ACP         0.3195
      7 O2B         5.3234   -3.4092   -4.3731 O.co2     1 ACP         0.3195
      8 C3B         3.1950   -3.1617   -6.0364 C.3       1 ACP         0.8942
      9 PA          4.4357   -0.0473   -3.4208 P.3       1 ACP        -1.1062
     10 O1A         5.0077    1.0009   -4.3502 O.co2     1 ACP         0.3195
     11 O2A         5.2684   -0.6124   -2.2904 O.co2     1 ACP         0.3195
     12 O3A         3.8786   -1.2888   -4.3238 O.3       1 ACP         0.4672
     13 O5'         3.0198    0.5138   -2.8245 O.3       1 ACP         0.1618
     14 C5'         2.2816   -0.2918   -1.9206 C.3       1 ACP         0.1504
     15 C4'         2.7248    0.0226   -0.4980 C.3       1 ACP         0.1111
     16 O4'         2.4697    1.4219   -0.2462 O.3       1 ACP        -0.1436
     17 C3'         1.9404   -0.7419    0.5596 C.3       1 ACP         0.1111
     18 O3'         2.7418   -0.8086    1.7389 O.3       1 ACP        -0.2728
     19 C2'         0.7477    0.1630    0.7858 C.3       1 ACP         0.1111
     20 O2'         0.1373   -0.0577    2.0407 O.3       1 ACP        -0.2728
     21 C1'         1.3733    1.5427    0.6747 C.3       1 ACP         0.2693
     22 N9          0.4520    2.5240    0.1767 N.pl3     1 ACP        -0.3222
     23 C8         -0.8593    2.9753    0.8343 C.ar      1 ACP         0.1640
     24 N7         -1.4458    3.9121    0.0693 N.2       1 ACP        -0.1640
     25 C5         -0.5581    4.0180   -0.9686 C.ar      1 ACP         0.0820
     26 C6         -0.7663    4.9543   -2.1092 C.ar      1 ACP         0.1640
     27 N6         -1.8429    5.7238   -2.1440 N.pl3     1 ACP        -0.4916
     28 N1          0.1993    4.9263   -3.0311 N.pl3     1 ACP        -0.4390
     29 C2          1.3416    4.0491   -2.9069 C.ar      1 ACP         0.5691
     30 N3          1.5401    3.2284   -1.9225 N.ar      1 ACP        -0.4283
     31 C4          0.5563    3.2529   -0.9772 C.ar      1 ACP         0.2226
     32 HOG3        2.4356   -0.6908   -8.5110 H         1 ACP         0.2010
     33 H3B1        3.5801   -3.8893   -6.7595 H         1 ACP        -0.0393
     34 H3B2        2.6933   -3.7243   -5.2413 H         1 ACP        -0.0393
     35 H5'1        1.2153   -0.0781   -2.0454 H         1 ACP        -0.0393
     36 H5'2        2.4645   -1.3454   -2.1547 H         1 ACP        -0.0393
     37 H4'         3.8046   -0.1390   -0.4011 H         1 ACP        -0.0393
     38 H3'         1.6787   -1.7627    0.2719 H         1 ACP        -0.0393
     39 HO3'        2.2231   -1.2979    2.3952 H         1 ACP         0.2010
     40 H2'         0.0002   -0.0084   -0.0014 H         1 ACP        -0.0393
     41 HO2'       -0.6132    0.5577    2.1063 H         1 ACP         0.2010
     42 H1'         1.7718    1.9211    1.6015 H         1 ACP        -0.0393
     43 H8         -1.3368    2.6590    1.7670 H         1 ACP         0.0000
     44 HN61       -2.5230    5.6776   -1.3990 H         1 ACP         0.2048
     45 HN62       -1.9865    6.3594   -2.9154 H         1 ACP         0.2048
     46 H2          2.0529    4.1368   -3.7423 H         1 ACP        -0.1292
     47 H47         0.1054    5.5465   -3.8301 H         1 ACP         0.2048
@<TRIPOS>BOND
     1    1    2 2
     2    1    3 1
     3    1    4 1
     4    1    8 1
     5    4   32 1
     6    5    6 2
     7    5    7 1
     8    5    8 1
     9    5   12 1
    10    8   33 1
    11    8   34 1
    12    9   10 2
    13    9   11 1
    14    9   12 1
    15    9   13 1
    16   13   14 1
    17   14   15 1
    18   14   35 1
    19   14   36 1
    20   15   16 1
    21   15   17 1
    22   15   37 1
    23   16   21 1
    24   17   18 1
    25   17   19 1
    26   17   38 1
    27   18   39 1
    28   19   20 1
    29   19   21 1
    30   19   40 1
    31   20   41 1
    32   21   22 1
    33   21   42 1
    34   22   23 ar
    35   22   31 ar
    36   23   24 ar
    37   23   43 1
    38   24   25 ar
    39   25   26 ar
    40   25   31 ar
    41   26   27 1
    42   26   28 ar
    43   27   44 1
    44   27   45 1
    45   28   29 ar
    46   28   47 1
    47   29   30 ar
    48   29   46 1
    49   30   31 ar
@<TRIPOS>SUBSTRUCTURE
     1 ACP         1 GROUP 0 A     ****
@<TRIPOS>MOLECULE
[[5-(6-amino-1,8-dihydropurine-6,8-diylium-7-id-9-yl)-3,4-dihydroxy-tetrahydrofuran-2-yl]methoxy-oxido-phosphoryl]oxy-[[hydroxy(oxido)phosphoryl]methyl]phosphinate
   47    49     1     0     0
SMALL
USER_CHARGES

@<TRIPOS>ATOM
      1 PG          3.5797    0.8185   -6.9561 P.3       1 ACP        -1.2804
      2 O1G         4.2598    1.1841   -8.2548 O.co2     1 ACP         0.3195
      3 O2G         4.1072    1.2767   -5.6160 O.co2     1 ACP         0.3195
      4 O3G         1.9903    1.1691   -7.0594 O.3       1 ACP         0.0326
      5 PB          2.6765   -1.9378   -5.4856 P.3       1 ACP        -1.2804
      6 O1B         2.7560   -3.4119   -5.8073 O.co2     1 ACP         0.3195
      7 O2B         1.3672   -1.2538   -5.1659 O.co2     1 ACP         0.3195
      8 C3B         3.4442   -1.0228   -6.8954 C.3       1 ACP         0.8942
      9 PA          3.9654   -2.1111   -2.8181 P.3       1 ACP        -1.1062
     10 O1A         5.0498   -1.2970   -2.1465 O.co2     1 ACP         0.3195
     11 O2A         4.0486   -3.6217   -2.8585 O.co2     1 ACP         0.3195
     12 O3A         3.7791   -1.5622   -4.3449 O.3       1 ACP         0.4672
     13 O5'         2.5237   -1.6631   -2.1889 O.3       1 ACP         0.1618
     14 C5'         2.2816   -0.2918   -1.9206 C.3       1 ACP         0.1504
     15 C4'         2.7248    0.0226   -0.4980 C.3       1 ACP         0.1111
     16 O4'         2.4697    1.4219   -0.2462 O.3       1 ACP        -0.1436
     17 C3'         1.9404   -0.7419    0.5596 C.3       1 ACP         0.1111
     18 O3'         2.7418   -0.8086    1.7389 O.3       1 ACP        -0.2728
     19 C2'         0.7477    0.1630    0.7858 C.3       1 ACP         0.1111
     20 O2'         0.1373   -0.0577    2.0407 O.3       1 ACP        -0.2728
     21 C1'         1.3733    1.5427    0.6747 C.3       1 ACP         0.2693
     22 N9          0.4520    2.5240    0.1767 N.pl3     1 ACP        -0.3222
     23 C8         -0.8593    2.9753    0.8343 C.ar      1 ACP         0.1640
     24 N7         -1.4458    3.9121    0.0693 N.2       1 ACP        -0.1640
     25 C5         -0.5581    4.0180   -0.9686 C.ar      1 ACP         0.0820
     26 C6         -0.7663    4.9543   -2.1092 C.ar      1 ACP         0.1640
     27 N6         -1.8429    5.7238   -2.1440 N.pl3     1 ACP        -0.4916
     28 N1          0.1993    4.9263   -3.0311 N.pl3     1 ACP        -0.4390
     29 C2          1.3416    4.0491   -2.9069 C.ar      1 ACP         0.5691
     30 N3          1.5401    3.2284   -1.9225 N.ar      1 ACP        -0.4283
     31 C4          0.5563    3.2529   -0.9772 C.ar      1 ACP         0.2226
     32 HOG3        1.7263    2.0986   -7.2281 H         1 ACP         0.2010
     33 H3B1        4.4661   -1.4054   -6.9948 H         1 ACP        -0.0393
     34 H3B2        2.8924   -1.3259   -7.7920 H         1 ACP        -0.0393
     35 H5'1        2.8429    0.3140   -2.6391 H         1 ACP        -0.0393
     36 H5'2        1.2125   -0.0906   -2.0420 H         1 ACP        -0.0393
     37 H4'         3.8046   -0.1390   -0.4011 H         1 ACP        -0.0393
     38 H3'         1.6787   -1.7627    0.2719 H         1 ACP        -0.0393
     39 HO3'        2.2231   -1.2979    2.3952 H         1 ACP         0.2010
     40 H2'         0.0002   -0.0084   -0.0014 H         1 ACP        -0.0393
     41 HO2'       -0.1554   -0.9852    2.0577 H         1 ACP         0.2010
     42 H1'         1.7718    1.9211    1.6015 H         1 ACP        -0.0393
     43 H8         -1.3368    2.6590    1.7670 H         1 ACP         0.0000
     44 HN61       -2.5230    5.6776   -1.3990 H         1 ACP         0.2048
     45 HN62       -1.9865    6.3594   -2.9154 H         1 ACP         0.2048
     46 H2          2.0529    4.1368   -3.7423 H         1 ACP        -0.1292
     47 H47         0.1054    5.5465   -3.8301 H         1 ACP         0.2048
@<TRIPOS>BOND
     1    1    2 2
     2    1    3 1
     3    1    4 1
     4    1    8 1
     5    4   32 1
     6    5    6 2
     7    5    7 1
     8    5    8 1
     9    5   12 1
    10    8   33 1
    11    8   34 1
    12    9   10 2
    13    9   11 1
    14    9   12 1
    15    9   13 1
    16   13   14 1
    17   14   15 1
    18   14   35 1
    19   14   36 1
    20   15   16 1
    21   15   17 1
    22   15   37 1
    23   16   21 1
    24   17   18 1
    25   17   19 1
    26   17   38 1
    27   18   39 1
    28   19   20 1
    29   19   21 1
    30   19   40 1
    31   20   41 1
    32   21   22 1
    33   21   42 1
    34   22   23 ar
    35   22   31 ar
    36   23   24 ar
    37   23   43 1
    38   24   25 ar
    39   25   26 ar
    40   25   31 ar
    41   26   27 1
    42   26   28 ar
    43   27   44 1
    44   27   45 1
    45   28   29 ar
    46   28   47 1
    47   29   30 ar
    48   29   46 1
    49   30   31 ar
@<TRIPOS>SUBSTRUCTURE
     1 ACP         1 GROUP 0 A     ****
@<TRIPOS>MOLECULE
[[5-(6-amino-1,8-dihydropurine-6,8-diylium-7-id-9-yl)-3,4-dihydroxy-tetrahydrofuran-2-yl]methoxy-oxido-phosphoryl]oxy-[[hydroxy(oxido)phosphoryl]methyl]phosphinate
   47    49     1     0     0
SMALL
USER_CHARGES

@<TRIPOS>ATOM
      1 PG          1.6631   -1.3322   -8.2356 P.3       1 ACP        -1.2804
      2 O1G         0.9940   -0.4736   -9.2834 O.co2     1 ACP         0.3195
      3 O2G         0.9039   -2.3726   -7.4447 O.co2     1 ACP         0.3195
      4 O3G         3.0070   -2.0077   -8.8660 O.3       1 ACP         0.0326
      5 PB          3.4241   -0.8008   -5.5538 P.3       1 ACP        -1.2804
      6 O1B         3.9287    0.4163   -4.8145 O.co2     1 ACP         0.3195
      7 O2B         4.3525   -1.8925   -6.0340 O.co2     1 ACP         0.3195
      8 C3B         2.4758   -0.2013   -7.0220 C.3       1 ACP         0.8942
      9 PA          2.1619   -2.4482   -3.4326 P.3       1 ACP        -1.1062
     10 O1A         3.0558   -3.6357   -3.7164 O.co2     1 ACP         0.3195
     11 O2A         0.7246   -2.6502   -3.0040 O.co2     1 ACP         0.3195
     12 O3A         2.1796   -1.4656   -4.7369 O.3       1 ACP         0.4672
     13 O5'         2.9202   -1.4821   -2.3524 O.3       1 ACP         0.1618
     14 C5'         2.2816   -0.2918   -1.9206 C.3       1 ACP         0.1504
     15 C4'         2.7248    0.0226   -0.4980 C.3       1 ACP         0.1111
     16 O4'         2.4697    1.4219   -0.2462 O.3       1 ACP        -0.1436
     17 C3'         1.9404   -0.7419    0.5596 C.3       1 ACP         0.1111
     18 O3'         2.7418   -0.8086    1.7389 O.3       1 ACP        -0.2728
     19 C2'         0.7477    0.1630    0.7858 C.3       1 ACP         0.1111
     20 O2'         0.1373   -0.0577    2.0407 O.3       1 ACP        -0.2728
     21 C1'         1.3733    1.5427    0.6747 C.3       1 ACP         0.2693
     22 N9          0.4520    2.5240    0.1767 N.pl3     1 ACP        -0.3222
     23 C8         -0.7463    2.2774   -0.7501 C.ar      1 ACP         0.1640
     24 N7         -1.3714    3.4419   -0.9948 N.2       1 ACP        -0.1640
     25 C5         -0.6104    4.3223   -0.2723 C.ar      1 ACP         0.0820
     26 C6         -0.9062    5.7820   -0.2194 C.ar      1 ACP         0.1640
     27 N6         -1.9385    6.2713   -0.8881 N.pl3     1 ACP        -0.4916
     28 N1         -0.0613    6.4906    0.5336 N.pl3     1 ACP        -0.4390
     29 C2          1.0416    5.8662    1.2291 C.ar      1 ACP         0.5691
     30 N3          1.3146    4.5989    1.1954 N.ar      1 ACP        -0.4283
     31 C4          0.4541    3.8697    0.4273 C.ar      1 ACP         0.2226
     32 HOG3        2.9139   -2.5925   -9.6480 H         1 ACP         0.2010
     33 H3B1        1.6832    0.4491   -6.6358 H         1 ACP        -0.0393
     34 H3B2        3.1662    0.4282   -7.5944 H         1 ACP        -0.0393
     35 H5'1        2.5581    0.5235   -2.5966 H         1 ACP        -0.0393
     36 H5'2        1.1974   -0.4370   -1.9607 H         1 ACP        -0.0393
     37 H4'         3.8046   -0.1390   -0.4011 H         1 ACP        -0.0393
     38 H3'         1.6787   -1.7627    0.2719 H         1 ACP        -0.0393
     39 HO3'        2.2231   -1.2979    2.3952 H         1 ACP         0.2010
     40 H2'         0.0002   -0.0084   -0.0014 H         1 ACP        -0.0393
     41 HO2'       -0.6132    0.5577    2.1063 H         1 ACP         0.2010
     42 H1'         1.7718    1.9211    1.6015 H         1 ACP        -0.0393
     43 H8         -1.1244    1.3534   -1.1987 H         1 ACP         0.0000
     44 HN61       -2.5259    5.6573   -1.4336 H         1 ACP         0.2048
     45 HN62       -2.1416    7.2600   -0.8539 H         1 ACP         0.2048
     46 H2          1.6509    6.5764    1.8088 H         1 ACP        -0.1292
     47 H47        -0.2190    7.4917    0.6033 H         1 ACP         0.2048
@<TRIPOS>BOND
     1    1    2 2
     2    1    3 1
     3    1    4 1
     4    1    8 1
     5    4   32 1
     6    5    6 2
     7    5    7 1
     8    5    8 1
     9    5   12 1
    10    8   33 1
    11    8   34 1
    12    9   10 2
    13    9   11 1
    14    9   12 1
    15    9   13 1
    16   13   14 1
    17   14   15 1
    18   14   35 1
    19   14   36 1
    20   15   16 1
    21   15   17 1
    22   15   37 1
    23   16   21 1
    24   17   18 1
    25   17   19 1
    26   17   38 1
    27   18   39 1
    28   19   20 1
    29   19   21 1
    30   19   40 1
    31   20   41 1
    32   21   22 1
    33   21   42 1
    34   22   23 ar
    35   22   31 ar
    36   23   24 ar
    37   23   43 1
    38   24   25 ar
    39   25   26 ar
    40   25   31 ar
    41   26   27 1
    42   26   28 ar
    43   27   44 1
    44   27   45 1
    45   28   29 ar
    46   28   47 1
    47   29   30 ar
    48   29   46 1
    49   30   31 ar
@<TRIPOS>SUBSTRUCTURE
     1 ACP         1 GROUP 0 A     ****
@<TRIPOS>MOLECULE
[[5-(6-amino-1,8-dihydropurine-6,8-diylium-7-id-9-yl)-3,4-dihydroxy-tetrahydrofuran-2-yl]methoxy-oxido-phosphoryl]oxy-[[hydroxy(oxido)phosphoryl]methyl]phosphinate
   47    49     1     0     0
SMALL
USER_CHARGES

@<TRIPOS>ATOM
      1 PG         -2.5671   -8.2001    1.4535 P.3       1 ACP        -1.2804
      2 O1G        -2.7474   -9.1420    0.2859 O.co2     1 ACP         0.3195
      3 O2G        -1.8327   -8.6088    2.7096 O.co2     1 ACP         0.3195
      4 O3G        -1.9707   -6.7801    0.9170 O.3       1 ACP         0.0326
      5 PB         -4.5257   -6.4349    3.3569 P.3       1 ACP        -1.2804
      6 O1B        -3.9827   -7.0816    4.6098 O.co2     1 ACP         0.3195
      7 O2B        -5.9544   -5.9524    3.2553 O.co2     1 ACP         0.3195
      8 C3B        -4.2430   -7.6119    1.9609 C.3       1 ACP         0.8942
      9 PA         -3.0181   -3.8920    3.6167 P.3       1 ACP        -1.1062
     10 O1A        -2.1616   -4.2860    4.8002 O.co2     1 ACP         0.3195
     11 O2A        -4.2124   -2.9804    3.7989 O.co2     1 ACP         0.3195
     12 O3A        -3.5163   -5.2531    2.8644 O.3       1 ACP         0.4672
     13 O5'        -2.0403   -3.2809    2.4568 O.3       1 ACP         0.1618
     14 C5'        -0.7840   -3.8935    2.2172 C.3       1 ACP         0.1504
     15 C4'        -0.0724   -3.1466    1.1027 C.3       1 ACP         0.1111
     16 O4'        -0.8674   -3.1929   -0.0945 O.3       1 ACP        -0.1436
     17 C3'         0.1338   -1.6715    1.4027 C.3       1 ACP         0.1111
     18 O3'         1.2893   -1.4445    2.1808 O.3       1 ACP        -0.2728
     19 C2'         0.2158   -1.0724    0.0128 C.3       1 ACP         0.1111
     20 O2'         1.5141   -1.2448   -0.5513 O.3       1 ACP        -0.2728
     21 C1'        -0.7897   -1.9176   -0.7583 C.3       1 ACP         0.2693
     22 N9         -2.1040   -1.3333   -0.7704 N.pl3     1 ACP        -0.3222
     23 C8         -3.3877   -1.9383   -0.1859 C.ar      1 ACP         0.1640
     24 N7         -4.4144   -1.0952   -0.3898 N.2       1 ACP        -0.1640
     25 C5         -3.7988   -0.0622   -1.0459 C.ar      1 ACP         0.0820
     26 C6         -4.5350    1.1514   -1.4997 C.ar      1 ACP         0.1640
     27 N6         -5.8347    1.2592   -1.2722 N.pl3     1 ACP        -0.4916
     28 N1         -3.7771    2.0576   -2.1221 N.pl3     1 ACP        -0.4390
     29 C2         -2.3607    1.8514   -2.3252 C.ar      1 ACP         0.5691
     30 N3         -1.7031    0.8030   -1.9377 N.ar      1 ACP        -0.4283
     31 C4         -2.4728   -0.1265   -1.3008 C.ar      1 ACP         0.2226
     32 HOG3       -1.1037   -6.7804    0.4582 H         1 ACP         0.2010
     33 H3B1       -4.8236   -8.5122    2.1909 H         1 ACP        -0.0393
     34 H3B2       -4.6936   -7.1489    1.0760 H         1 ACP        -0.0393
     35 H5'1       -0.1929   -3.8610    3.1379 H         1 ACP        -0.0393
     36 H5'2       -0.9476   -4.9382    1.9344 H         1 ACP        -0.0393
     37 H4'         0.8883   -3.6447    0.8783 H         1 ACP        -0.0393
     38 H3'        -0.7368   -1.2359    1.9871 H         1 ACP        -0.0393
     39 HO3'        1.3407   -0.4871    2.3218 H         1 ACP         0.2010
     40 H2'        -0.0343   -0.0280    0.0196 H         1 ACP        -0.0393
     41 HO2'        2.1443   -0.7955    0.0378 H         1 ACP         0.2010
     42 H1'        -0.5175   -2.1046   -1.7826 H         1 ACP        -0.0393
     43 H8         -3.5590   -2.8873    0.3318 H         1 ACP         0.0000
     44 HN61       -6.3363    2.0803   -1.5787 H         1 ACP         0.2048
     45 HN62       -6.3278    0.5203   -0.7920 H         1 ACP         0.2048
     46 H2         -1.8692    2.6833   -2.8525 H         1 ACP        -0.1292
     47 H47        -4.2310    2.9046   -2.4517 H         1 ACP         0.2048
@<TRIPOS>BOND
     1    1    2 2
     2    1    3 1
     3    1    4 1
     4    1    8 1
     5    4   32 1
     6    5    6 2
     7    5    7 1
     8    5    8 1
     9    5   12 1
    10    8   33 1
    11    8   34 1
    12    9   10 2
    13    9   11 1
    14    9   12 1
    15    9   13 1
    16   13   14 1
    17   14   15 1
    18   14   35 1
    19   14   36 1
    20   15   16 1
    21   15   17 1
    22   15   37 1
    23   16   21 1
    24   17   18 1
    25   17   19 1
    26   17   38 1
    27   18   39 1
    28   19   20 1
    29   19   21 1
    30   19   40 1
    31   20   41 1
    32   21   22 1
    33   21   42 1
    34   22   23 ar
    35   22   31 ar
    36   23   24 ar
    37   23   43 1
    38   24   25 ar
    39   25   26 ar
    40   25   31 ar
    41   26   27 1
    42   26   28 ar
    43   27   44 1
    44   27   45 1
    45   28   29 ar
    46   28   47 1
    47   29   30 ar
    48   29   46 1
    49   30   31 ar
@<TRIPOS>SUBSTRUCTURE
     1 ACP         1 GROUP 0 A     ****
@<TRIPOS>MOLECULE
[[5-(6-amino-1,8-dihydropurine-6,8-diylium-7-id-9-yl)-3,4-dihydroxy-tetrahydrofuran-2-yl]methoxy-oxido-phosphoryl]oxy-[[hydroxy(oxido)phosphoryl]methyl]phosphinate
   47    49     1     0     0
SMALL
USER_CHARGES

@<TRIPOS>ATOM
      1 PG          3.2358    1.1595   -6.3130 P.3       1 ACP        -1.2804
      2 O1G         2.3462    1.0341   -5.0982 O.co2     1 ACP         0.3195
      3 O2G         2.7705    1.8328   -7.5836 O.co2     1 ACP         0.3195
      4 O3G         4.6759    1.7823   -5.8680 O.3       1 ACP         0.0326
      5 PB          4.7841   -1.6168   -5.6274 P.3       1 ACP        -1.2804
      6 O1B         6.0663   -0.8863   -5.3033 O.co2     1 ACP         0.3195
      7 O2B         4.7781   -3.0099   -6.2136 O.co2     1 ACP         0.3195
      8 C3B         3.8066   -0.5381   -6.7653 C.3       1 ACP         0.8942
      9 PA          3.9654   -2.1111   -2.8181 P.3       1 ACP        -1.1062
     10 O1A         5.0498   -1.2970   -2.1465 O.co2     1 ACP         0.3195
     11 O2A         4.0486   -3.6217   -2.8585 O.co2     1 ACP         0.3195
     12 O3A         3.7791   -1.5622   -4.3449 O.3       1 ACP         0.4672
     13 O5'         2.5237   -1.6631   -2.1889 O.3       1 ACP         0.1618
     14 C5'         2.2816   -0.2918   -1.9206 C.3       1 ACP         0.1504
     15 C4'         2.7248    0.0226   -0.4980 C.3       1 ACP         0.1111
     16 O4'         2.4697    1.4219   -0.2462 O.3       1 ACP        -0.1436
     17 C3'         1.9404   -0.7419    0.5596 C.3       1 ACP         0.1111
     18 O3'         2.7418   -0.8086    1.7389 O.3       1 ACP        -0.2728
     19 C2'         0.7477    0.1630    0.7858 C.3       1 ACP         0.1111
     20 O2'         0.1373   -0.0577    2.0407 O.3       1 ACP        -0.2728
     21 C1'         1.3733    1.5427    0.6747 C.3       1 ACP         0.2693
     22 N9          0.4520    2.5240    0.1767 N.pl3     1 ACP        -0.3222
     23 C8         -0.7463    2.2774   -0.7501 C.ar      1 ACP         0.1640
     24 N7         -1.3714    3.4419   -0.9948 N.2       1 ACP        -0.1640
     25 C5         -0.6104    4.3223   -0.2723 C.ar      1 ACP         0.0820
     26 C6         -0.9062    5.7820   -0.2194 C.ar      1 ACP         0.1640
     27 N6         -1.9385    6.2713   -0.8881 N.pl3     1 ACP        -0.4916
     28 N1         -0.0613    6.4906    0.5336 N.pl3     1 ACP        -0.4390
     29 C2          1.0416    5.8662    1.2291 C.ar      1 ACP         0.5691
     30 N3          1.3146    4.5989    1.1954 N.ar      1 ACP        -0.4283
     31 C4          0.4541    3.8697    0.4273 C.ar      1 ACP         0.2226
     32 HOG3        4.6930    2.6702   -5.4515 H         1 ACP         0.2010
     33 H3B1        4.4048   -0.4242   -7.6762 H         1 ACP        -0.0393
     34 H3B2        2.9103   -1.1092   -7.0316 H         1 ACP        -0.0393
     35 H5'1        2.8429    0.3140   -2.6391 H         1 ACP        -0.0393
     36 H5'2        1.2125   -0.0906   -2.0420 H         1 ACP        -0.0393
     37 H4'         3.8046   -0.1390   -0.4011 H         1 ACP        -0.0393
     38 H3'         1.6787   -1.7627    0.2719 H         1 ACP        -0.0393
     39 HO3'        2.2231   -1.2979    2.3952 H         1 ACP         0.2010
     40 H2'         0.0002   -0.0084   -0.0014 H         1 ACP        -0.0393
     41 HO2'       -0.6132    0.5577    2.1063 H         1 ACP         0.2010
     42 H1'         1.7718    1.9211    1.6015 H         1 ACP        -0.0393
     43 H8         -1.1244    1.3534   -1.1987 H         1 ACP         0.0000
     44 HN61       -2.5259    5.6573   -1.4336 H         1 ACP         0.2048
     45 HN62       -2.1416    7.2600   -0.8539 H         1 ACP         0.2048
     46 H2          1.6509    6.5764    1.8088 H         1 ACP        -0.1292
     47 H47        -0.2190    7.4917    0.6033 H         1 ACP         0.2048
@<TRIPOS>BOND
     1    1    2 2
     2    1    3 1
     3    1    4 1
     4    1    8 1
     5    4   32 1
     6    5    6 2
     7    5    7 1
     8    5    8 1
     9    5   12 1
    10    8   33 1
    11    8   34 1
    12    9   10 2
    13    9   11 1
    14    9   12 1
    15    9   13 1
    16   13   14 1
    17   14   15 1
    18   14   35 1
    19   14   36 1
    20   15   16 1
    21   15   17 1
    22   15   37 1
    23   16   21 1
    24   17   18 1
    25   17   19 1
    26   17   38 1
    27   18   39 1
    28   19   20 1
    29   19   21 1
    30   19   40 1
    31   20   41 1
    32   21   22 1
    33   21   42 1
    34   22   23 ar
    35   22   31 ar
    36   23   24 ar
    37   23   43 1
    38   24   25 ar
    39   25   26 ar
    40   25   31 ar
    41   26   27 1
    42   26   28 ar
    43   27   44 1
    44   27   45 1
    45   28   29 ar
    46   28   47 1
    47   29   30 ar
    48   29   46 1
    49   30   31 ar
@<TRIPOS>SUBSTRUCTURE
     1 ACP         1 GROUP 0 A     ****
@<TRIPOS>MOLECULE
[[5-(6-amino-1,8-dihydropurine-6,8-diylium-7-id-9-yl)-3,4-dihydroxy-tetrahydrofuran-2-yl]methoxy-oxido-phosphoryl]oxy-[[hydroxy(oxido)phosphoryl]methyl]phosphinate
   47    49     1     0     0
SMALL
USER_CHARGES

@<TRIPOS>ATOM
      1 PG          2.1528   -1.0102   -7.4394 P.3       1 ACP        -1.2804
      2 O1G         1.6792    0.1209   -8.3221 O.co2     1 ACP         0.3195
      3 O2G         1.3263   -1.5289   -6.2853 O.co2     1 ACP         0.3195
      4 O3G         2.6259   -2.2626   -8.3707 O.3       1 ACP         0.0326
      5 PB          4.7841   -1.6168   -5.6274 P.3       1 ACP        -1.2804
      6 O1B         6.0663   -0.8863   -5.3033 O.co2     1 ACP         0.3195
      7 O2B         4.7781   -3.0099   -6.2136 O.co2     1 ACP         0.3195
      8 C3B         3.8066   -0.5381   -6.7653 C.3       1 ACP         0.8942
      9 PA          3.9654   -2.1111   -2.8181 P.3       1 ACP        -1.1062
     10 O1A         5.0498   -1.2970   -2.1465 O.co2     1 ACP         0.3195
     11 O2A         4.0486   -3.6217   -2.8585 O.co2     1 ACP         0.3195
     12 O3A         3.7791   -1.5622   -4.3449 O.3       1 ACP         0.4672
     13 O5'         2.5237   -1.6631   -2.1889 O.3       1 ACP         0.1618
     14 C5'         2.2816   -0.2918   -1.9206 C.3       1 ACP         0.1504
     15 C4'         2.7248    0.0226   -0.4980 C.3       1 ACP         0.1111
     16 O4'         2.4697    1.4219   -0.2462 O.3       1 ACP        -0.1436
     17 C3'         1.9404   -0.7419    0.5596 C.3       1 ACP         0.1111
     18 O3'         2.7418   -0.8086    1.7389 O.3       1 ACP        -0.2728
     19 C2'         0.7477    0.1630    0.7858 C.3       1 ACP         0.1111
     20 O2'         0.1373   -0.0577    2.0407 O.3       1 ACP        -0.2728
     21 C1'         1.3733    1.5427    0.6747 C.3       1 ACP         0.2693
     22 N9          0.4520    2.5240    0.1767 N.pl3     1 ACP        -0.3222
     23 C8         -1.0247    2.3053   -0.1800 C.ar      1 ACP         0.1640
     24 N7         -1.5580    3.4612   -0.6116 N.2       1 ACP        -0.1640
     25 C5         -0.4873    4.3110   -0.5222 C.ar      1 ACP         0.0820
     26 C6         -0.5728    5.7505   -0.8981 C.ar      1 ACP         0.1640
     27 N6         -1.7163    6.2514   -1.3385 N.pl3     1 ACP        -0.4916
     28 N1          0.5667    6.4301   -0.7475 N.pl3     1 ACP        -0.4390
     29 C2          1.7697    5.7952   -0.2579 C.ar      1 ACP         0.5691
     30 N3          1.8633    4.5450    0.0742 N.ar      1 ACP        -0.4283
     31 C4          0.7014    3.8457   -0.0776 C.ar      1 ACP         0.2226
     32 HOG3        1.9688   -2.6722   -8.9730 H         1 ACP         0.2010
     33 H3B1        3.6605    0.4136   -6.2425 H         1 ACP        -0.0393
     34 H3B2        4.4521   -0.3417   -7.6286 H         1 ACP        -0.0393
     35 H5'1        2.8429    0.3140   -2.6391 H         1 ACP        -0.0393
     36 H5'2        1.2125   -0.0906   -2.0420 H         1 ACP        -0.0393
     37 H4'         3.8046   -0.1390   -0.4011 H         1 ACP        -0.0393
     38 H3'         1.6787   -1.7627    0.2719 H         1 ACP        -0.0393
     39 HO3'        2.2231   -1.2979    2.3952 H         1 ACP         0.2010
     40 H2'         0.0002   -0.0084   -0.0014 H         1 ACP        -0.0393
     41 HO2'       -0.6132    0.5577    2.1063 H         1 ACP         0.2010
     42 H1'         1.7718    1.9211    1.6015 H         1 ACP        -0.0393
     43 H8         -1.6458    1.4054   -0.1318 H         1 ACP         0.0000
     44 HN61       -2.5307    5.6598   -1.4199 H         1 ACP         0.2048
     45 HN62       -1.7773    7.2266   -1.5938 H         1 ACP         0.2048
     46 H2          2.6279    6.4808   -0.1872 H         1 ACP        -0.1292
     47 H47         0.5621    7.4166   -0.9900 H         1 ACP         0.2048
@<TRIPOS>BOND
     1    1    2 2
     2    1    3 1
     3    1    4 1
     4    1    8 1
     5    4   32 1
     6    5    6 2
     7    5    7 1
     8    5    8 1
     9    5   12 1
    10    8   33 1
    11    8   34 1
    12    9   10 2
    13    9   11 1
    14    9   12 1
    15    9   13 1
    16   13   14 1
    17   14   15 1
    18   14   35 1
    19   14   36 1
    20   15   16 1
    21   15   17 1
    22   15   37 1
    23   16   21 1
    24   17   18 1
    25   17   19 1
    26   17   38 1
    27   18   39 1
    28   19   20 1
    29   19   21 1
    30   19   40 1
    31   20   41 1
    32   21   22 1
    33   21   42 1
    34   22   23 ar
    35   22   31 ar
    36   23   24 ar
    37   23   43 1
    38   24   25 ar
    39   25   26 ar
    40   25   31 ar
    41   26   27 1
    42   26   28 ar
    43   27   44 1
    44   27   45 1
    45   28   29 ar
    46   28   47 1
    47   29   30 ar
    48   29   46 1
    49   30   31 ar
@<TRIPOS>SUBSTRUCTURE
     1 ACP         1 GROUP 0 A     ****
@<TRIPOS>MOLECULE
[[5-(6-amino-1,8-dihydropurine-6,8-diylium-7-id-9-yl)-3,4-dihydroxy-tetrahydrofuran-2-yl]methoxy-oxido-phosphoryl]oxy-[[hydroxy(oxido)phosphoryl]methyl]phosphinate
   47    49     1     0     0
SMALL
USER_CHARGES

@<TRIPOS>ATOM
      1 PG          0.5603   -2.1100   -6.7294 P.3       1 ACP        -1.2804
      2 O1G        -0.4979   -3.1858   -6.8044 O.co2     1 ACP         0.3195
      3 O2G         1.8378   -2.2929   -5.9429 O.co2     1 ACP         0.3195
      4 O3G         0.9218   -1.5997   -8.2357 O.3       1 ACP         0.0326
      5 PB          0.6524    1.0215   -5.8571 P.3       1 ACP        -1.2804
      6 O1B        -0.3486    2.0330   -5.3497 O.co2     1 ACP         0.3195
      7 O2B         1.4881    1.2667   -7.0924 O.co2     1 ACP         0.3195
      8 C3B        -0.2516   -0.5696   -6.1127 C.3       1 ACP         0.8942
      9 PA          2.9215    1.2532   -3.9587 P.3       1 ACP        -1.1062
     10 O1A         2.4657    2.5119   -3.2532 O.co2     1 ACP         0.3195
     11 O2A         4.0280    1.3050   -4.9899 O.co2     1 ACP         0.3195
     12 O3A         1.6174    0.5395   -4.6346 O.3       1 ACP         0.4672
     13 O5'         3.2883    0.1336   -2.8242 O.3       1 ACP         0.1618
     14 C5'         2.2816   -0.2918   -1.9206 C.3       1 ACP         0.1504
     15 C4'         2.7248    0.0226   -0.4980 C.3       1 ACP         0.1111
     16 O4'         2.4697    1.4219   -0.2462 O.3       1 ACP        -0.1436
     17 C3'         1.9404   -0.7419    0.5596 C.3       1 ACP         0.1111
     18 O3'         2.7418   -0.8086    1.7389 O.3       1 ACP        -0.2728
     19 C2'         0.7477    0.1630    0.7858 C.3       1 ACP         0.1111
     20 O2'         0.1373   -0.0577    2.0407 O.3       1 ACP        -0.2728
     21 C1'         1.3733    1.5427    0.6747 C.3       1 ACP         0.2693
     22 N9          0.4520    2.5240    0.1767 N.pl3     1 ACP        -0.3222
     23 C8         -1.0660    2.5608    0.3999 C.ar      1 ACP         0.1640
     24 N7         -1.5852    3.6333   -0.2221 N.2       1 ACP        -0.1640
     25 C5         -0.4682    4.1996   -0.7771 C.ar      1 ACP         0.0820
     26 C6         -0.5216    5.4476   -1.5899 C.ar      1 ACP         0.1640
     27 N6         -1.6813    6.0510   -1.7982 N.pl3     1 ACP        -0.4916
     28 N1          0.6621    5.8575   -2.0523 N.pl3     1 ACP        -0.4390
     29 C2          1.8795    5.1301   -1.7717 C.ar      1 ACP         0.5691
     30 N3          1.9458    4.0434   -1.0670 N.ar      1 ACP        -0.4283
     31 C4          0.7388    3.6199   -0.5917 C.ar      1 ACP         0.2226
     32 HOG3        1.2720   -2.2521   -8.8791 H         1 ACP         0.2010
     33 H3B1       -0.7022   -0.8296   -5.1484 H         1 ACP        -0.0393
     34 H3B2       -1.0696   -0.3473   -6.8069 H         1 ACP        -0.0393
     35 H5'1        1.3500    0.2325   -2.1560 H         1 ACP        -0.0393
     36 H5'2        2.1267   -1.3683   -2.0444 H         1 ACP        -0.0393
     37 H4'         3.8046   -0.1390   -0.4011 H         1 ACP        -0.0393
     38 H3'         1.6787   -1.7627    0.2719 H         1 ACP        -0.0393
     39 HO3'        3.5553   -1.2733    1.4913 H         1 ACP         0.2010
     40 H2'         0.0002   -0.0084   -0.0014 H         1 ACP        -0.0393
     41 HO2'        0.8091    0.1203    2.7213 H         1 ACP         0.2010
     42 H1'         1.7718    1.9211    1.6015 H         1 ACP        -0.0393
     43 H8         -1.7235    1.8833    0.9537 H         1 ACP         0.0000
     44 HN61       -2.5296    5.6672   -1.4072 H         1 ACP         0.2048
     45 HN62       -1.7205    6.8969   -2.3483 H         1 ACP         0.2048
     46 H2          2.7750    5.5878   -2.2190 H         1 ACP        -0.1292
     47 H47         0.6808    6.7046   -2.6128 H         1 ACP         0.2048
@<TRIPOS>BOND
     1    1    2 2
     2    1    3 1
     3    1    4 1
     4    1    8 1
     5    4   32 1
     6    5    6 2
     7    5    7 1
     8    5    8 1
     9    5   12 1
    10    8   33 1
    11    8   34 1
    12    9   10 2
    13    9   11 1
    14    9   12 1
    15    9   13 1
    16   13   14 1
    17   14   15 1
    18   14   35 1
    19   14   36 1
    20   15   16 1
    21   15   17 1
    22   15   37 1
    23   16   21 1
    24   17   18 1
    25   17   19 1
    26   17   38 1
    27   18   39 1
    28   19   20 1
    29   19   21 1
    30   19   40 1
    31   20   41 1
    32   21   22 1
    33   21   42 1
    34   22   23 ar
    35   22   31 ar
    36   23   24 ar
    37   23   43 1
    38   24   25 ar
    39   25   26 ar
    40   25   31 ar
    41   26   27 1
    42   26   28 ar
    43   27   44 1
    44   27   45 1
    45   28   29 ar
    46   28   47 1
    47   29   30 ar
    48   29   46 1
    49   30   31 ar
@<TRIPOS>SUBSTRUCTURE
     1 ACP         1 GROUP 0 A     ****
@<TRIPOS>MOLECULE
[[5-(6-amino-1,8-dihydropurine-6,8-diylium-7-id-9-yl)-3,4-dihydroxy-tetrahydrofuran-2-yl]methoxy-oxido-phosphoryl]oxy-[[hydroxy(oxido)phosphoryl]methyl]phosphinate
   47    49     1     0     0
SMALL
USER_CHARGES

@<TRIPOS>ATOM
      1 PG          7.1924   -1.7006   -0.2693 P.3       1 ACP        -1.2804
      2 O1G         8.0702   -0.9242    0.6843 O.co2     1 ACP         0.3195
      3 O2G         7.3367   -3.1929   -0.4601 O.co2     1 ACP         0.3195
      4 O3G         5.6280   -1.3420    0.0204 O.3       1 ACP         0.0326
      5 PB          6.4451   -1.5235   -3.4293 P.3       1 ACP        -1.2804
      6 O1B         6.8833   -2.9493   -3.6696 O.co2     1 ACP         0.3195
      7 O2B         6.5651   -0.4552   -4.4916 O.co2     1 ACP         0.3195
      8 C3B         7.3435   -0.9143   -1.9340 C.3       1 ACP         0.8942
      9 PA          3.5286   -2.0718   -3.4129 P.3       1 ACP        -1.1062
     10 O1A         3.6075   -3.5816   -3.4780 O.co2     1 ACP         0.3195
     11 O2A         3.1762   -1.2645   -4.6435 O.co2     1 ACP         0.3195
     12 O3A         4.9372   -1.5072   -2.8095 O.3       1 ACP         0.4672
     13 O5'         2.5237   -1.6631   -2.1889 O.3       1 ACP         0.1618
     14 C5'         2.2816   -0.2918   -1.9206 C.3       1 ACP         0.1504
     15 C4'         2.7248    0.0226   -0.4980 C.3       1 ACP         0.1111
     16 O4'         2.4697    1.4219   -0.2462 O.3       1 ACP        -0.1436
     17 C3'         1.9404   -0.7419    0.5596 C.3       1 ACP         0.1111
     18 O3'         2.7418   -0.8086    1.7389 O.3       1 ACP        -0.2728
     19 C2'         0.7477    0.1630    0.7858 C.3       1 ACP         0.1111
     20 O2'         0.1373   -0.0577    2.0407 O.3       1 ACP        -0.2728
     21 C1'         1.3733    1.5427    0.6747 C.3       1 ACP         0.2693
     22 N9          0.4520    2.5240    0.1767 N.pl3     1 ACP        -0.3222
     23 C8         -1.0660    2.5608    0.3999 C.ar      1 ACP         0.1640
     24 N7         -1.5852    3.6333   -0.2221 N.2       1 ACP        -0.1640
     25 C5         -0.4682    4.1996   -0.7771 C.ar      1 ACP         0.0820
     26 C6         -0.5216    5.4476   -1.5899 C.ar      1 ACP         0.1640
     27 N6         -1.6813    6.0510   -1.7982 N.pl3     1 ACP        -0.4916
     28 N1          0.6621    5.8575   -2.0523 N.pl3     1 ACP        -0.4390
     29 C2          1.8795    5.1301   -1.7717 C.ar      1 ACP         0.5691
     30 N3          1.9458    4.0434   -1.0670 N.ar      1 ACP        -0.4283
     31 C4          0.7388    3.6199   -0.5917 C.ar      1 ACP         0.2226
     32 HOG3        5.2616   -1.5318    0.9103 H         1 ACP         0.2010
     33 H3B1        8.4103   -0.9338   -2.1828 H         1 ACP        -0.0393
     34 H3B2        7.0548    0.1355   -1.8118 H         1 ACP        -0.0393
     35 H5'1        2.8429    0.3140   -2.6391 H         1 ACP        -0.0393
     36 H5'2        1.2125   -0.0906   -2.0420 H         1 ACP        -0.0393
     37 H4'         3.8046   -0.1390   -0.4011 H         1 ACP        -0.0393
     38 H3'         1.6787   -1.7627    0.2719 H         1 ACP        -0.0393
     39 HO3'        2.2231   -1.2979    2.3952 H         1 ACP         0.2010
     40 H2'         0.0002   -0.0084   -0.0014 H         1 ACP        -0.0393
     41 HO2'       -0.1554   -0.9852    2.0577 H         1 ACP         0.2010
     42 H1'         1.7718    1.9211    1.6015 H         1 ACP        -0.0393
     43 H8         -1.7235    1.8833    0.9537 H         1 ACP         0.0000
     44 HN61       -2.5296    5.6672   -1.4072 H         1 ACP         0.2048
     45 HN62       -1.7205    6.8969   -2.3483 H         1 ACP         0.2048
     46 H2          2.7750    5.5878   -2.2190 H         1 ACP        -0.1292
     47 H47         0.6808    6.7046   -2.6128 H         1 ACP         0.2048
@<TRIPOS>BOND
     1    1    2 2
     2    1    3 1
     3    1    4 1
     4    1    8 1
     5    4   32 1
     6    5    6 2
     7    5    7 1
     8    5    8 1
     9    5   12 1
    10    8   33 1
    11    8   34 1
    12    9   10 2
    13    9   11 1
    14    9   12 1
    15    9   13 1
    16   13   14 1
    17   14   15 1
    18   14   35 1
    19   14   36 1
    20   15   16 1
    21   15   17 1
    22   15   37 1
    23   16   21 1
    24   17   18 1
    25   17   19 1
    26   17   38 1
    27   18   39 1
    28   19   20 1
    29   19   21 1
    30   19   40 1
    31   20   41 1
    32   21   22 1
    33   21   42 1
    34   22   23 ar
    35   22   31 ar
    36   23   24 ar
    37   23   43 1
    38   24   25 ar
    39   25   26 ar
    40   25   31 ar
    41   26   27 1
    42   26   28 ar
    43   27   44 1
    44   27   45 1
    45   28   29 ar
    46   28   47 1
    47   29   30 ar
    48   29   46 1
    49   30   31 ar
@<TRIPOS>SUBSTRUCTURE
     1 ACP         1 GROUP 0 A     ****
@<TRIPOS>MOLECULE
[[5-(6-amino-1,8-dihydropurine-6,8-diylium-7-id-9-yl)-3,4-dihydroxy-tetrahydrofuran-2-yl]methoxy-oxido-phosphoryl]oxy-[[hydroxy(oxido)phosphoryl]methyl]phosphinate
   47    49     1     0     0
SMALL
USER_CHARGES

@<TRIPOS>ATOM
      1 PG         -1.3167    0.7383   -4.8018 P.3       1 ACP        -1.2804
      2 O1G        -1.9544    1.8323   -3.9776 O.co2     1 ACP         0.3195
      3 O2G        -0.5849   -0.4223   -4.1679 O.co2     1 ACP         0.3195
      4 O3G        -2.4011    0.1695   -5.8790 O.3       1 ACP         0.0326
      5 PB          1.2848    2.5738   -5.4636 P.3       1 ACP        -1.2804
      6 O1B         0.7385    3.7340   -4.6649 O.co2     1 ACP         0.3195
      7 O2B         2.1625    2.7754   -6.6775 O.co2     1 ACP         0.3195
      8 C3B        -0.1533    1.5407   -5.9913 C.3       1 ACP         0.8942
      9 PA          3.2331    1.6548   -3.4224 P.3       1 ACP        -1.1062
     10 O1A         2.8120    2.5879   -2.3081 O.co2     1 ACP         0.3195
     11 O2A         4.4890    1.9264   -4.2220 O.co2     1 ACP         0.3195
     12 O3A         1.9831    1.4943   -4.4610 O.3       1 ACP         0.4672
     13 O5'         3.2883    0.1336   -2.8242 O.3       1 ACP         0.1618
     14 C5'         2.2816   -0.2918   -1.9206 C.3       1 ACP         0.1504
     15 C4'         2.7248    0.0226   -0.4980 C.3       1 ACP         0.1111
     16 O4'         2.4697    1.4219   -0.2462 O.3       1 ACP        -0.1436
     17 C3'         1.9404   -0.7419    0.5596 C.3       1 ACP         0.1111
     18 O3'         2.7418   -0.8086    1.7389 O.3       1 ACP        -0.2728
     19 C2'         0.7477    0.1630    0.7858 C.3       1 ACP         0.1111
     20 O2'         0.1373   -0.0577    2.0407 O.3       1 ACP        -0.2728
     21 C1'         1.3733    1.5427    0.6747 C.3       1 ACP         0.2693
     22 N9          0.4520    2.5240    0.1767 N.pl3     1 ACP        -0.3222
     23 C8         -0.3054    2.4845   -1.1576 C.ar      1 ACP         0.1640
     24 N7         -1.0755    3.5806   -1.2691 N.2       1 ACP        -0.1640
     25 C5         -0.8043    4.2306   -0.0942 C.ar      1 ACP         0.0820
     26 C6         -1.4324    5.5335    0.2646 C.ar      1 ACP         0.1640
     27 N6         -2.2885    6.1055   -0.5675 N.pl3     1 ACP        -0.4916
     28 N1         -1.0537    6.0229    1.4478 N.pl3     1 ACP        -0.4390
     29 C2         -0.1096    5.3242    2.2908 C.ar      1 ACP         0.5691
     30 N3          0.4468    4.1904    1.9960 N.ar      1 ACP        -0.4283
     31 C4          0.0631    3.6855    0.7877 C.ar      1 ACP         0.2226
     32 HOG3       -3.2340   -0.2235   -5.5413 H         1 ACP         0.2010
     33 H3B1       -0.7703    2.1740   -6.6384 H         1 ACP        -0.0393
     34 H3B2        0.2593    0.7396   -6.6144 H         1 ACP        -0.0393
     35 H5'1        1.3500    0.2325   -2.1560 H         1 ACP        -0.0393
     36 H5'2        2.1267   -1.3683   -2.0444 H         1 ACP        -0.0393
     37 H4'         3.8046   -0.1390   -0.4011 H         1 ACP        -0.0393
     38 H3'         1.6787   -1.7627    0.2719 H         1 ACP        -0.0393
     39 HO3'        3.5553   -1.2733    1.4913 H         1 ACP         0.2010
     40 H2'         0.0002   -0.0084   -0.0014 H         1 ACP        -0.0393
     41 HO2'       -0.1554   -0.9852    2.0577 H         1 ACP         0.2010
     42 H1'         1.7718    1.9211    1.6015 H         1 ACP        -0.0393
     43 H8         -0.2991    1.7413   -1.9611 H         1 ACP         0.0000
     44 HN61       -2.5167    5.6603   -1.4447 H         1 ACP         0.2048
     45 HN62       -2.7159    6.9882   -0.3270 H         1 ACP         0.2048
     46 H2          0.1059    5.8491    3.2340 H         1 ACP        -0.1292
     47 H47        -1.4532    6.9099    1.7401 H         1 ACP         0.2048
@<TRIPOS>BOND
     1    1    2 2
     2    1    3 1
     3    1    4 1
     4    1    8 1
     5    4   32 1
     6    5    6 2
     7    5    7 1
     8    5    8 1
     9    5   12 1
    10    8   33 1
    11    8   34 1
    12    9   10 2
    13    9   11 1
    14    9   12 1
    15    9   13 1
    16   13   14 1
    17   14   15 1
    18   14   35 1
    19   14   36 1
    20   15   16 1
    21   15   17 1
    22   15   37 1
    23   16   21 1
    24   17   18 1
    25   17   19 1
    26   17   38 1
    27   18   39 1
    28   19   20 1
    29   19   21 1
    30   19   40 1
    31   20   41 1
    32   21   22 1
    33   21   42 1
    34   22   23 ar
    35   22   31 ar
    36   23   24 ar
    37   23   43 1
    38   24   25 ar
    39   25   26 ar
    40   25   31 ar
    41   26   27 1
    42   26   28 ar
    43   27   44 1
    44   27   45 1
    45   28   29 ar
    46   28   47 1
    47   29   30 ar
    48   29   46 1
    49   30   31 ar
@<TRIPOS>SUBSTRUCTURE
     1 ACP         1 GROUP 0 A     ****
@<TRIPOS>MOLECULE
[[5-(6-amino-1,8-dihydropurine-6,8-diylium-7-id-9-yl)-3,4-dihydroxy-tetrahydrofuran-2-yl]methoxy-oxido-phosphoryl]oxy-[[hydroxy(oxido)phosphoryl]methyl]phosphinate
   47    49     1     0     0
SMALL
USER_CHARGES

@<TRIPOS>ATOM
      1 PG          5.6899    3.0776    0.4997 P.3       1 ACP        -1.2804
      2 O1G         5.4412    1.6264    0.1603 O.co2     1 ACP         0.3195
      3 O2G         6.0346    3.5274    1.9008 O.co2     1 ACP         0.3195
      4 O3G         6.7715    3.7017   -0.5493 O.3       1 ACP         0.0326
      5 PB          3.6218    4.1030   -1.7908 P.3       1 ACP        -1.2804
      6 O1B         4.7426    4.6830   -2.6215 O.co2     1 ACP         0.3195
      7 O2B         2.2352    4.7044   -1.7787 O.co2     1 ACP         0.3195
      8 C3B         4.2081    4.0395   -0.0397 C.3       1 ACP         0.8942
      9 PA          3.2331    1.6548   -3.4224 P.3       1 ACP        -1.1062
     10 O1A         4.4130    1.8426   -4.3510 O.co2     1 ACP         0.3195
     11 O2A         1.8268    1.9598   -3.8913 O.co2     1 ACP         0.3195
     12 O3A         3.5157    2.4972   -2.0522 O.3       1 ACP         0.4672
     13 O5'         3.2883    0.1336   -2.8242 O.3       1 ACP         0.1618
     14 C5'         2.2816   -0.2918   -1.9206 C.3       1 ACP         0.1504
     15 C4'         2.7248    0.0226   -0.4980 C.3       1 ACP         0.1111
     16 O4'         2.4697    1.4219   -0.2462 O.3       1 ACP        -0.1436
     17 C3'         1.9404   -0.7419    0.5596 C.3       1 ACP         0.1111
     18 O3'         2.7418   -0.8086    1.7389 O.3       1 ACP        -0.2728
     19 C2'         0.7477    0.1630    0.7858 C.3       1 ACP         0.1111
     20 O2'         0.1373   -0.0577    2.0407 O.3       1 ACP        -0.2728
     21 C1'         1.3733    1.5427    0.6747 C.3       1 ACP         0.2693
     22 N9          0.4520    2.5240    0.1767 N.pl3     1 ACP        -0.3222
     23 C8         -0.3054    2.4845   -1.1576 C.ar      1 ACP         0.1640
     24 N7         -1.0755    3.5806   -1.2691 N.2       1 ACP        -0.1640
     25 C5         -0.8043    4.2306   -0.0942 C.ar      1 ACP         0.0820
     26 C6         -1.4324    5.5335    0.2646 C.ar      1 ACP         0.1640
     27 N6         -2.2885    6.1055   -0.5675 N.pl3     1 ACP        -0.4916
     28 N1         -1.0537    6.0229    1.4478 N.pl3     1 ACP        -0.4390
     29 C2         -0.1096    5.3242    2.2908 C.ar      1 ACP         0.5691
     30 N3          0.4468    4.1904    1.9960 N.ar      1 ACP        -0.4283
     31 C4          0.0631    3.6855    0.7877 C.ar      1 ACP         0.2226
     32 HOG3        7.6643    3.2981   -0.5961 H         1 ACP         0.2010
     33 H3B1        4.3922    5.0760    0.2643 H         1 ACP        -0.0393
     34 H3B2        3.3627    3.6702    0.5514 H         1 ACP        -0.0393
     35 H5'1        1.3500    0.2325   -2.1560 H         1 ACP        -0.0393
     36 H5'2        2.1267   -1.3683   -2.0444 H         1 ACP        -0.0393
     37 H4'         3.8046   -0.1390   -0.4011 H         1 ACP        -0.0393
     38 H3'         1.6787   -1.7627    0.2719 H         1 ACP        -0.0393
     39 HO3'        2.2231   -1.2979    2.3952 H         1 ACP         0.2010
     40 H2'         0.0002   -0.0084   -0.0014 H         1 ACP        -0.0393
     41 HO2'       -0.6132    0.5577    2.1063 H         1 ACP         0.2010
     42 H1'         1.7718    1.9211    1.6015 H         1 ACP        -0.0393
     43 H8         -0.2991    1.7413   -1.9611 H         1 ACP         0.0000
     44 HN61       -2.5167    5.6603   -1.4447 H         1 ACP         0.2048
     45 HN62       -2.7159    6.9882   -0.3270 H         1 ACP         0.2048
     46 H2          0.1059    5.8491    3.2340 H         1 ACP        -0.1292
     47 H47        -1.4532    6.9099    1.7401 H         1 ACP         0.2048
@<TRIPOS>BOND
     1    1    2 2
     2    1    3 1
     3    1    4 1
     4    1    8 1
     5    4   32 1
     6    5    6 2
     7    5    7 1
     8    5    8 1
     9    5   12 1
    10    8   33 1
    11    8   34 1
    12    9   10 2
    13    9   11 1
    14    9   12 1
    15    9   13 1
    16   13   14 1
    17   14   15 1
    18   14   35 1
    19   14   36 1
    20   15   16 1
    21   15   17 1
    22   15   37 1
    23   16   21 1
    24   17   18 1
    25   17   19 1
    26   17   38 1
    27   18   39 1
    28   19   20 1
    29   19   21 1
    30   19   40 1
    31   20   41 1
    32   21   22 1
    33   21   42 1
    34   22   23 ar
    35   22   31 ar
    36   23   24 ar
    37   23   43 1
    38   24   25 ar
    39   25   26 ar
    40   25   31 ar
    41   26   27 1
    42   26   28 ar
    43   27   44 1
    44   27   45 1
    45   28   29 ar
    46   28   47 1
    47   29   30 ar
    48   29   46 1
    49   30   31 ar
@<TRIPOS>SUBSTRUCTURE
     1 ACP         1 GROUP 0 A     ****
@<TRIPOS>MOLECULE
[[5-(6-amino-1,8-dihydropurine-6,8-diylium-7-id-9-yl)-3,4-dihydroxy-tetrahydrofuran-2-yl]methoxy-oxido-phosphoryl]oxy-[[hydroxy(oxido)phosphoryl]methyl]phosphinate
   47    49     1     0     0
SMALL
USER_CHARGES

@<TRIPOS>ATOM
      1 PG         -5.2315   -5.0947    4.5751 P.3       1 ACP        -1.2804
      2 O1G        -6.0568   -3.9750    5.1649 O.co2     1 ACP         0.3195
      3 O2G        -3.7622   -5.2608    4.8880 O.co2     1 ACP         0.3195
      4 O3G        -5.9978   -6.5149    4.8111 O.3       1 ACP         0.0326
      5 PB         -4.5596   -6.1778    1.5833 P.3       1 ACP        -1.2804
      6 O1B        -4.9394   -5.7770    0.1770 O.co2     1 ACP         0.3195
      7 O2B        -4.7954   -7.5734    2.1134 O.co2     1 ACP         0.3195
      8 C3B        -5.3974   -5.0032    2.7376 C.3       1 ACP         0.8942
      9 PA         -1.6235   -6.1545    1.1527 P.3       1 ACP        -1.1062
     10 O1A        -1.6305   -5.5867   -0.2500 O.co2     1 ACP         0.3195
     11 O2A        -1.3851   -7.6308    1.3856 O.co2     1 ACP         0.3195
     12 O3A        -3.0204   -5.7338    1.8865 O.3       1 ACP         0.4672
     13 O5'        -0.5697   -5.2855    2.0524 O.3       1 ACP         0.1618
     14 C5'        -0.7840   -3.8935    2.2172 C.3       1 ACP         0.1504
     15 C4'        -0.0724   -3.1466    1.1027 C.3       1 ACP         0.1111
     16 O4'        -0.8674   -3.1929   -0.0945 O.3       1 ACP        -0.1436
     17 C3'         0.1338   -1.6715    1.4027 C.3       1 ACP         0.1111
     18 O3'         1.2893   -1.4445    2.1808 O.3       1 ACP        -0.2728
     19 C2'         0.2158   -1.0724    0.0128 C.3       1 ACP         0.1111
     20 O2'         1.5141   -1.2448   -0.5513 O.3       1 ACP        -0.2728
     21 C1'        -0.7897   -1.9176   -0.7583 C.3       1 ACP         0.2693
     22 N9         -2.1040   -1.3333   -0.7704 N.pl3     1 ACP        -0.3222
     23 C8         -3.2124   -1.5345    0.2719 C.ar      1 ACP         0.1640
     24 N7         -4.2964   -0.8234   -0.0828 N.2       1 ACP        -0.1640
     25 C5         -3.8754   -0.2386   -1.2478 C.ar      1 ACP         0.0820
     26 C6         -4.7432    0.6719   -2.0470 C.ar      1 ACP         0.1640
     27 N6         -5.9725    0.9415   -1.6366 N.pl3     1 ACP        -0.4916
     28 N1         -4.1703    1.1517   -3.1536 N.pl3     1 ACP        -0.4390
     29 C2         -2.8174    0.7994   -3.5215 C.ar      1 ACP         0.5691
     30 N3         -2.0475    0.0097   -2.8393 N.ar      1 ACP        -0.4283
     31 C4         -2.6278   -0.4836   -1.7071 C.ar      1 ACP         0.2226
     32 HOG3       -6.1846   -6.7984    5.7314 H         1 ACP         0.2010
     33 H3B1       -5.0663   -3.9983    2.4530 H         1 ACP        -0.0393
     34 H3B2       -6.4683   -5.0701    2.5162 H         1 ACP        -0.0393
     35 H5'1       -1.8599   -3.6946    2.1849 H         1 ACP        -0.0393
     36 H5'2       -0.3934   -3.5881    3.1930 H         1 ACP        -0.0393
     37 H4'         0.8883   -3.6447    0.8783 H         1 ACP        -0.0393
     38 H3'        -0.7368   -1.2359    1.9871 H         1 ACP        -0.0393
     39 HO3'        1.3407   -0.4871    2.3218 H         1 ACP         0.2010
     40 H2'        -0.0343   -0.0280    0.0196 H         1 ACP        -0.0393
     41 HO2'        2.1443   -0.7955    0.0378 H         1 ACP         0.2010
     42 H1'        -0.5175   -2.1046   -1.7826 H         1 ACP        -0.0393
     43 H8         -3.2310   -2.1319    1.1889 H         1 ACP         0.0000
     44 HN61       -6.3230    0.5316   -0.7829 H         1 ACP         0.2048
     45 HN62       -6.5628    1.5584   -2.1760 H         1 ACP         0.2048
     46 H2         -2.4822    1.2710   -4.4579 H         1 ACP        -0.1292
     47 H47        -4.7200    1.7780   -3.7346 H         1 ACP         0.2048
@<TRIPOS>BOND
     1    1    2 2
     2    1    3 1
     3    1    4 1
     4    1    8 1
     5    4   32 1
     6    5    6 2
     7    5    7 1
     8    5    8 1
     9    5   12 1
    10    8   33 1
    11    8   34 1
    12    9   10 2
    13    9   11 1
    14    9   12 1
    15    9   13 1
    16   13   14 1
    17   14   15 1
    18   14   35 1
    19   14   36 1
    20   15   16 1
    21   15   17 1
    22   15   37 1
    23   16   21 1
    24   17   18 1
    25   17   19 1
    26   17   38 1
    27   18   39 1
    28   19   20 1
    29   19   21 1
    30   19   40 1
    31   20   41 1
    32   21   22 1
    33   21   42 1
    34   22   23 ar
    35   22   31 ar
    36   23   24 ar
    37   23   43 1
    38   24   25 ar
    39   25   26 ar
    40   25   31 ar
    41   26   27 1
    42   26   28 ar
    43   27   44 1
    44   27   45 1
    45   28   29 ar
    46   28   47 1
    47   29   30 ar
    48   29   46 1
    49   30   31 ar
@<TRIPOS>SUBSTRUCTURE
     1 ACP         1 GROUP 0 A     ****
@<TRIPOS>MOLECULE
[[5-(6-amino-1,8-dihydropurine-6,8-diylium-7-id-9-yl)-3,4-dihydroxy-tetrahydrofuran-2-yl]methoxy-oxido-phosphoryl]oxy-[[hydroxy(oxido)phosphoryl]methyl]phosphinate
   47    49     1     0     0
SMALL
USER_CHARGES

@<TRIPOS>ATOM
      1 PG         -1.3167    0.7383   -4.8018 P.3       1 ACP        -1.2804
      2 O1G        -2.3498   -0.0127   -5.6089 O.co2     1 ACP         0.3195
      3 O2G        -1.7002    1.7782   -3.7743 O.co2     1 ACP         0.3195
      4 O3G        -0.2753   -0.3236   -4.1326 O.3       1 ACP         0.0326
      5 PB          1.2848    2.5738   -5.4636 P.3       1 ACP        -1.2804
      6 O1B         0.7385    3.7340   -4.6649 O.co2     1 ACP         0.3195
      7 O2B         2.1625    2.7754   -6.6775 O.co2     1 ACP         0.3195
      8 C3B        -0.1533    1.5407   -5.9913 C.3       1 ACP         0.8942
      9 PA          3.2331    1.6548   -3.4224 P.3       1 ACP        -1.1062
     10 O1A         2.8120    2.5879   -2.3081 O.co2     1 ACP         0.3195
     11 O2A         4.4890    1.9264   -4.2220 O.co2     1 ACP         0.3195
     12 O3A         1.9831    1.4943   -4.4610 O.3       1 ACP         0.4672
     13 O5'         3.2883    0.1336   -2.8242 O.3       1 ACP         0.1618
     14 C5'         2.2816   -0.2918   -1.9206 C.3       1 ACP         0.1504
     15 C4'         2.7248    0.0226   -0.4980 C.3       1 ACP         0.1111
     16 O4'         2.4697    1.4219   -0.2462 O.3       1 ACP        -0.1436
     17 C3'         1.9404   -0.7419    0.5596 C.3       1 ACP         0.1111
     18 O3'         2.7418   -0.8086    1.7389 O.3       1 ACP        -0.2728
     19 C2'         0.7477    0.1630    0.7858 C.3       1 ACP         0.1111
     20 O2'         0.1373   -0.0577    2.0407 O.3       1 ACP        -0.2728
     21 C1'         1.3733    1.5427    0.6747 C.3       1 ACP         0.2693
     22 N9          0.4520    2.5240    0.1767 N.pl3     1 ACP        -0.3222
     23 C8         -1.0247    2.3053   -0.1800 C.ar      1 ACP         0.1640
     24 N7         -1.5580    3.4612   -0.6116 N.2       1 ACP        -0.1640
     25 C5         -0.4873    4.3110   -0.5222 C.ar      1 ACP         0.0820
     26 C6         -0.5728    5.7505   -0.8981 C.ar      1 ACP         0.1640
     27 N6         -1.7163    6.2514   -1.3385 N.pl3     1 ACP        -0.4916
     28 N1          0.5667    6.4301   -0.7475 N.pl3     1 ACP        -0.4390
     29 C2          1.7697    5.7952   -0.2579 C.ar      1 ACP         0.5691
     30 N3          1.8633    4.5450    0.0742 N.ar      1 ACP        -0.4283
     31 C4          0.7014    3.8457   -0.0776 C.ar      1 ACP         0.2226
     32 HOG3       -0.6290   -1.0021   -3.5188 H         1 ACP         0.2010
     33 H3B1       -0.7703    2.1740   -6.6384 H         1 ACP        -0.0393
     34 H3B2        0.2593    0.7396   -6.6144 H         1 ACP        -0.0393
     35 H5'1        1.3500    0.2325   -2.1560 H         1 ACP        -0.0393
     36 H5'2        2.1267   -1.3683   -2.0444 H         1 ACP        -0.0393
     37 H4'         3.8046   -0.1390   -0.4011 H         1 ACP        -0.0393
     38 H3'         1.6787   -1.7627    0.2719 H         1 ACP        -0.0393
     39 HO3'        2.2231   -1.2979    2.3952 H         1 ACP         0.2010
     40 H2'         0.0002   -0.0084   -0.0014 H         1 ACP        -0.0393
     41 HO2'       -0.1554   -0.9852    2.0577 H         1 ACP         0.2010
     42 H1'         1.7718    1.9211    1.6015 H         1 ACP        -0.0393
     43 H8         -1.6458    1.4054   -0.1318 H         1 ACP         0.0000
     44 HN61       -2.5307    5.6598   -1.4199 H         1 ACP         0.2048
     45 HN62       -1.7773    7.2266   -1.5938 H         1 ACP         0.2048
     46 H2          2.6279    6.4808   -0.1872 H         1 ACP        -0.1292
     47 H47         0.5621    7.4166   -0.9900 H         1 ACP         0.2048
@<TRIPOS>BOND
     1    1    2 2
     2    1    3 1
     3    1    4 1
     4    1    8 1
     5    4   32 1
     6    5    6 2
     7    5    7 1
     8    5    8 1
     9    5   12 1
    10    8   33 1
    11    8   34 1
    12    9   10 2
    13    9   11 1
    14    9   12 1
    15    9   13 1
    16   13   14 1
    17   14   15 1
    18   14   35 1
    19   14   36 1
    20   15   16 1
    21   15   17 1
    22   15   37 1
    23   16   21 1
    24   17   18 1
    25   17   19 1
    26   17   38 1
    27   18   39 1
    28   19   20 1
    29   19   21 1
    30   19   40 1
    31   20   41 1
    32   21   22 1
    33   21   42 1
    34   22   23 ar
    35   22   31 ar
    36   23   24 ar
    37   23   43 1
    38   24   25 ar
    39   25   26 ar
    40   25   31 ar
    41   26   27 1
    42   26   28 ar
    43   27   44 1
    44   27   45 1
    45   28   29 ar
    46   28   47 1
    47   29   30 ar
    48   29   46 1
    49   30   31 ar
@<TRIPOS>SUBSTRUCTURE
     1 ACP         1 GROUP 0 A     ****
@<TRIPOS>MOLECULE
[[5-(6-amino-1,8-dihydropurine-6,8-diylium-7-id-9-yl)-3,4-dihydroxy-tetrahydrofuran-2-yl]methoxy-oxido-phosphoryl]oxy-[[hydroxy(oxido)phosphoryl]methyl]phosphinate
   47    49     1     0     0
SMALL
USER_CHARGES

@<TRIPOS>ATOM
      1 PG         -1.3885    1.1598   -5.4839 P.3       1 ACP        -1.2804
      2 O1G        -2.4280    1.8664   -6.3223 O.co2     1 ACP         0.3195
      3 O2G        -1.1169    1.5450   -4.0479 O.co2     1 ACP         0.3195
      4 O3G        -1.6222   -0.4517   -5.5758 O.3       1 ACP         0.0326
      5 PB          1.7881    0.5174   -5.7516 P.3       1 ACP        -1.2804
      6 O1B         2.8664    0.7977   -6.7721 O.co2     1 ACP         0.3195
      7 O2B         1.4713   -0.8833   -5.2803 O.co2     1 ACP         0.3195
      8 C3B         0.2174    1.2495   -6.3925 C.3       1 ACP         0.8942
      9 PA          3.2331    1.6548   -3.4224 P.3       1 ACP        -1.1062
     10 O1A         2.8120    2.5879   -2.3081 O.co2     1 ACP         0.3195
     11 O2A         4.4890    1.9264   -4.2220 O.co2     1 ACP         0.3195
     12 O3A         1.9831    1.4943   -4.4610 O.3       1 ACP         0.4672
     13 O5'         3.2883    0.1336   -2.8242 O.3       1 ACP         0.1618
     14 C5'         2.2816   -0.2918   -1.9206 C.3       1 ACP         0.1504
     15 C4'         2.7248    0.0226   -0.4980 C.3       1 ACP         0.1111
     16 O4'         2.4697    1.4219   -0.2462 O.3       1 ACP        -0.1436
     17 C3'         1.9404   -0.7419    0.5596 C.3       1 ACP         0.1111
     18 O3'         2.7418   -0.8086    1.7389 O.3       1 ACP        -0.2728
     19 C2'         0.7477    0.1630    0.7858 C.3       1 ACP         0.1111
     20 O2'         0.1373   -0.0577    2.0407 O.3       1 ACP        -0.2728
     21 C1'         1.3733    1.5427    0.6747 C.3       1 ACP         0.2693
     22 N9          0.4520    2.5240    0.1767 N.pl3     1 ACP        -0.3222
     23 C8         -0.7463    2.2774   -0.7501 C.ar      1 ACP         0.1640
     24 N7         -1.3714    3.4419   -0.9948 N.2       1 ACP        -0.1640
     25 C5         -0.6104    4.3223   -0.2723 C.ar      1 ACP         0.0820
     26 C6         -0.9062    5.7820   -0.2194 C.ar      1 ACP         0.1640
     27 N6         -1.9385    6.2713   -0.8881 N.pl3     1 ACP        -0.4916
     28 N1         -0.0613    6.4906    0.5336 N.pl3     1 ACP        -0.4390
     29 C2          1.0416    5.8662    1.2291 C.ar      1 ACP         0.5691
     30 N3          1.3146    4.5989    1.1954 N.ar      1 ACP        -0.4283
     31 C4          0.4541    3.8697    0.4273 C.ar      1 ACP         0.2226
     32 HOG3       -2.4804   -0.8179   -5.2730 H         1 ACP         0.2010
     33 H3B1        0.4146    2.3150   -6.5551 H         1 ACP        -0.0393
     34 H3B2        0.0474    0.7944   -7.3745 H         1 ACP        -0.0393
     35 H5'1        1.3500    0.2325   -2.1560 H         1 ACP        -0.0393
     36 H5'2        2.1267   -1.3683   -2.0444 H         1 ACP        -0.0393
     37 H4'         3.8046   -0.1390   -0.4011 H         1 ACP        -0.0393
     38 H3'         1.6787   -1.7627    0.2719 H         1 ACP        -0.0393
     39 HO3'        2.2231   -1.2979    2.3952 H         1 ACP         0.2010
     40 H2'         0.0002   -0.0084   -0.0014 H         1 ACP        -0.0393
     41 HO2'       -0.6132    0.5577    2.1063 H         1 ACP         0.2010
     42 H1'         1.7718    1.9211    1.6015 H         1 ACP        -0.0393
     43 H8         -1.1244    1.3534   -1.1987 H         1 ACP         0.0000
     44 HN61       -2.5259    5.6573   -1.4336 H         1 ACP         0.2048
     45 HN62       -2.1416    7.2600   -0.8539 H         1 ACP         0.2048
     46 H2          1.6509    6.5764    1.8088 H         1 ACP        -0.1292
     47 H47        -0.2190    7.4917    0.6033 H         1 ACP         0.2048
@<TRIPOS>BOND
     1    1    2 2
     2    1    3 1
     3    1    4 1
     4    1    8 1
     5    4   32 1
     6    5    6 2
     7    5    7 1
     8    5    8 1
     9    5   12 1
    10    8   33 1
    11    8   34 1
    12    9   10 2
    13    9   11 1
    14    9   12 1
    15    9   13 1
    16   13   14 1
    17   14   15 1
    18   14   35 1
    19   14   36 1
    20   15   16 1
    21   15   17 1
    22   15   37 1
    23   16   21 1
    24   17   18 1
    25   17   19 1
    26   17   38 1
    27   18   39 1
    28   19   20 1
    29   19   21 1
    30   19   40 1
    31   20   41 1
    32   21   22 1
    33   21   42 1
    34   22   23 ar
    35   22   31 ar
    36   23   24 ar
    37   23   43 1
    38   24   25 ar
    39   25   26 ar
    40   25   31 ar
    41   26   27 1
    42   26   28 ar
    43   27   44 1
    44   27   45 1
    45   28   29 ar
    46   28   47 1
    47   29   30 ar
    48   29   46 1
    49   30   31 ar
@<TRIPOS>SUBSTRUCTURE
     1 ACP         1 GROUP 0 A     ****
@<TRIPOS>MOLECULE
[[5-(6-amino-1,8-dihydropurine-6,8-diylium-7-id-9-yl)-3,4-dihydroxy-tetrahydrofuran-2-yl]methoxy-oxido-phosphoryl]oxy-[[hydroxy(oxido)phosphoryl]methyl]phosphinate
   47    49     1     0     0
SMALL
USER_CHARGES

@<TRIPOS>ATOM
      1 PG         -5.1675   -4.3519    3.9155 P.3       1 ACP        -1.2804
      2 O1G        -5.8776   -4.1648    5.2360 O.co2     1 ACP         0.3195
      3 O2G        -5.6133   -3.6450    2.6562 O.co2     1 ACP         0.3195
      4 O3G        -3.5662   -4.1244    4.1245 O.3       1 ACP         0.0326
      5 PB         -4.3646   -6.8772    2.0304 P.3       1 ACP        -1.2804
      6 O1B        -5.0838   -6.2879    0.8395 O.co2     1 ACP         0.3195
      7 O2B        -4.2507   -8.3691    2.2439 O.co2     1 ACP         0.3195
      8 C3B        -5.1352   -6.1623    3.5501 C.3       1 ACP         0.8942
      9 PA         -1.6235   -6.1545    1.1527 P.3       1 ACP        -1.1062
     10 O1A        -2.0102   -5.3284   -0.0547 O.co2     1 ACP         0.3195
     11 O2A        -1.0989   -7.5643    0.9863 O.co2     1 ACP         0.3195
     12 O3A        -2.8926   -6.1925    2.1797 O.3       1 ACP         0.4672
     13 O5'        -0.5697   -5.2855    2.0524 O.3       1 ACP         0.1618
     14 C5'        -0.7840   -3.8935    2.2172 C.3       1 ACP         0.1504
     15 C4'        -0.0724   -3.1466    1.1027 C.3       1 ACP         0.1111
     16 O4'        -0.8674   -3.1929   -0.0945 O.3       1 ACP        -0.1436
     17 C3'         0.1338   -1.6715    1.4027 C.3       1 ACP         0.1111
     18 O3'         1.2893   -1.4445    2.1808 O.3       1 ACP        -0.2728
     19 C2'         0.2158   -1.0724    0.0128 C.3       1 ACP         0.1111
     20 O2'         1.5141   -1.2448   -0.5513 O.3       1 ACP        -0.2728
     21 C1'        -0.7897   -1.9176   -0.7583 C.3       1 ACP         0.2693
     22 N9         -2.1040   -1.3333   -0.7704 N.pl3     1 ACP        -0.3222
     23 C8         -3.2124   -1.5345    0.2719 C.ar      1 ACP         0.1640
     24 N7         -4.2964   -0.8234   -0.0828 N.2       1 ACP        -0.1640
     25 C5         -3.8754   -0.2386   -1.2478 C.ar      1 ACP         0.0820
     26 C6         -4.7432    0.6719   -2.0470 C.ar      1 ACP         0.1640
     27 N6         -5.9725    0.9415   -1.6366 N.pl3     1 ACP        -0.4916
     28 N1         -4.1703    1.1517   -3.1536 N.pl3     1 ACP        -0.4390
     29 C2         -2.8174    0.7994   -3.5215 C.ar      1 ACP         0.5691
     30 N3         -2.0475    0.0097   -2.8393 N.ar      1 ACP        -0.4283
     31 C4         -2.6278   -0.4836   -1.7071 C.ar      1 ACP         0.2226
     32 HOG3       -3.2565   -3.2543    4.4551 H         1 ACP         0.2010
     33 H3B1       -6.1805   -6.4909    3.5526 H         1 ACP        -0.0393
     34 H3B2       -4.6384   -6.6444    4.3993 H         1 ACP        -0.0393
     35 H5'1       -1.8599   -3.6946    2.1849 H         1 ACP        -0.0393
     36 H5'2       -0.3934   -3.5881    3.1930 H         1 ACP        -0.0393
     37 H4'         0.8883   -3.6447    0.8783 H         1 ACP        -0.0393
     38 H3'        -0.7368   -1.2359    1.9871 H         1 ACP        -0.0393
     39 HO3'        1.3407   -0.4871    2.3218 H         1 ACP         0.2010
     40 H2'        -0.0343   -0.0280    0.0196 H         1 ACP        -0.0393
     41 HO2'        2.1443   -0.7955    0.0378 H         1 ACP         0.2010
     42 H1'        -0.5175   -2.1046   -1.7826 H         1 ACP        -0.0393
     43 H8         -3.2310   -2.1319    1.1889 H         1 ACP         0.0000
     44 HN61       -6.5630    1.5580   -2.1762 H         1 ACP         0.2048
     45 HN62       -6.3231    0.5311   -0.7832 H         1 ACP         0.2048
     46 H2         -2.4822    1.2710   -4.4579 H         1 ACP        -0.1292
     47 H47        -4.7200    1.7780   -3.7346 H         1 ACP         0.2048
@<TRIPOS>BOND
     1    1    2 2
     2    1    3 1
     3    1    4 1
     4    1    8 1
     5    4   32 1
     6    5    6 2
     7    5    7 1
     8    5    8 1
     9    5   12 1
    10    8   33 1
    11    8   34 1
    12    9   10 2
    13    9   11 1
    14    9   12 1
    15    9   13 1
    16   13   14 1
    17   14   15 1
    18   14   35 1
    19   14   36 1
    20   15   16 1
    21   15   17 1
    22   15   37 1
    23   16   21 1
    24   17   18 1
    25   17   19 1
    26   17   38 1
    27   18   39 1
    28   19   20 1
    29   19   21 1
    30   19   40 1
    31   20   41 1
    32   21   22 1
    33   21   42 1
    34   22   23 ar
    35   22   31 ar
    36   23   24 ar
    37   23   43 1
    38   24   25 ar
    39   25   26 ar
    40   25   31 ar
    41   26   27 1
    42   26   28 ar
    43   27   44 1
    44   27   45 1
    45   28   29 ar
    46   28   47 1
    47   29   30 ar
    48   29   46 1
    49   30   31 ar
@<TRIPOS>SUBSTRUCTURE
     1 ACP         1 GROUP 0 A     ****
@<TRIPOS>MOLECULE
[[5-(6-amino-1,8-dihydropurine-6,8-diylium-7-id-9-yl)-3,4-dihydroxy-tetrahydrofuran-2-yl]methoxy-oxido-phosphoryl]oxy-[[hydroxy(oxido)phosphoryl]methyl]phosphinate
   47    49     1     0     0
SMALL
USER_CHARGES

@<TRIPOS>ATOM
      1 PG         -4.7977   -4.2825   -1.3277 P.3       1 ACP        -1.2804
      2 O1G        -5.1463   -5.6206   -1.9368 O.co2     1 ACP         0.3195
      3 O2G        -3.3709   -3.7954   -1.2212 O.co2     1 ACP         0.3195
      4 O3G        -5.7154   -3.1205   -2.0112 O.3       1 ACP         0.0326
      5 PB         -5.0815   -5.4394    1.6982 P.3       1 ACP        -1.2804
      6 O1B        -5.4425   -6.8181    1.1966 O.co2     1 ACP         0.3195
      7 O2B        -5.6191   -4.8908    2.9999 O.co2     1 ACP         0.3195
      8 C3B        -5.5253   -4.2346    0.3695 C.3       1 ACP         0.8942
      9 PA         -2.2655   -6.0670    2.3934 P.3       1 ACP        -1.1062
     10 O1A        -2.2247   -7.4675    1.8220 O.co2     1 ACP         0.3195
     11 O2A        -2.3842   -5.8465    3.8860 O.co2     1 ACP         0.3195
     12 O3A        -3.4638   -5.2419    1.6516 O.3       1 ACP         0.4672
     13 O5'        -0.9728   -5.2427    1.8237 O.3       1 ACP         0.1618
     14 C5'        -0.7840   -3.8935    2.2172 C.3       1 ACP         0.1504
     15 C4'        -0.0724   -3.1466    1.1027 C.3       1 ACP         0.1111
     16 O4'        -0.8674   -3.1929   -0.0945 O.3       1 ACP        -0.1436
     17 C3'         0.1338   -1.6715    1.4027 C.3       1 ACP         0.1111
     18 O3'         1.2893   -1.4445    2.1808 O.3       1 ACP        -0.2728
     19 C2'         0.2158   -1.0724    0.0128 C.3       1 ACP         0.1111
     20 O2'         1.5141   -1.2448   -0.5513 O.3       1 ACP        -0.2728
     21 C1'        -0.7897   -1.9176   -0.7583 C.3       1 ACP         0.2693
     22 N9         -2.1040   -1.3333   -0.7704 N.pl3     1 ACP        -0.3222
     23 C8         -3.2124   -1.5345    0.2719 C.ar      1 ACP         0.1640
     24 N7         -4.2964   -0.8234   -0.0828 N.2       1 ACP        -0.1640
     25 C5         -3.8754   -0.2386   -1.2478 C.ar      1 ACP         0.0820
     26 C6         -4.7432    0.6719   -2.0470 C.ar      1 ACP         0.1640
     27 N6         -5.9725    0.9415   -1.6366 N.pl3     1 ACP        -0.4916
     28 N1         -4.1703    1.1517   -3.1536 N.pl3     1 ACP        -0.4390
     29 C2         -2.8174    0.7994   -3.5215 C.ar      1 ACP         0.5691
     30 N3         -2.0475    0.0097   -2.8393 N.ar      1 ACP        -0.4283
     31 C4         -2.6278   -0.4836   -1.7071 C.ar      1 ACP         0.2226
     32 HOG3       -5.6483   -2.9807   -2.9798 H         1 ACP         0.2010
     33 H3B1       -6.6105   -4.3045    0.2362 H         1 ACP        -0.0393
     34 H3B2       -5.3085   -3.2401    0.7751 H         1 ACP        -0.0393
     35 H5'1       -1.7614   -3.4427    2.4167 H         1 ACP        -0.0393
     36 H5'2       -0.1870   -3.8723    3.1344 H         1 ACP        -0.0393
     37 H4'         0.8883   -3.6447    0.8783 H         1 ACP        -0.0393
     38 H3'        -0.7368   -1.2359    1.9871 H         1 ACP        -0.0393
     39 HO3'        1.1625   -1.9325    3.0084 H         1 ACP         0.2010
     40 H2'        -0.0343   -0.0280    0.0196 H         1 ACP        -0.0393
     41 HO2'        1.4978   -0.8409   -1.4361 H         1 ACP         0.2010
     42 H1'        -0.5175   -2.1046   -1.7826 H         1 ACP        -0.0393
     43 H8         -3.2310   -2.1319    1.1889 H         1 ACP         0.0000
     44 HN61       -6.3230    0.5316   -0.7829 H         1 ACP         0.2048
     45 HN62       -6.5628    1.5584   -2.1760 H         1 ACP         0.2048
     46 H2         -2.4822    1.2710   -4.4579 H         1 ACP        -0.1292
     47 H47        -4.7200    1.7780   -3.7346 H         1 ACP         0.2048
@<TRIPOS>BOND
     1    1    2 2
     2    1    3 1
     3    1    4 1
     4    1    8 1
     5    4   32 1
     6    5    6 2
     7    5    7 1
     8    5    8 1
     9    5   12 1
    10    8   33 1
    11    8   34 1
    12    9   10 2
    13    9   11 1
    14    9   12 1
    15    9   13 1
    16   13   14 1
    17   14   15 1
    18   14   35 1
    19   14   36 1
    20   15   16 1
    21   15   17 1
    22   15   37 1
    23   16   21 1
    24   17   18 1
    25   17   19 1
    26   17   38 1
    27   18   39 1
    28   19   20 1
    29   19   21 1
    30   19   40 1
    31   20   41 1
    32   21   22 1
    33   21   42 1
    34   22   23 ar
    35   22   31 ar
    36   23   24 ar
    37   23   43 1
    38   24   25 ar
    39   25   26 ar
    40   25   31 ar
    41   26   27 1
    42   26   28 ar
    43   27   44 1
    44   27   45 1
    45   28   29 ar
    46   28   47 1
    47   29   30 ar
    48   29   46 1
    49   30   31 ar
@<TRIPOS>SUBSTRUCTURE
     1 ACP         1 GROUP 0 A     ****
@<TRIPOS>MOLECULE
[[5-(6-amino-1,8-dihydropurine-6,8-diylium-7-id-9-yl)-3,4-dihydroxy-tetrahydrofuran-2-yl]methoxy-oxido-phosphoryl]oxy-[[hydroxy(oxido)phosphoryl]methyl]phosphinate
   47    49     1     0     0
SMALL
USER_CHARGES

@<TRIPOS>ATOM
      1 PG         -1.5628   -5.3316   -2.8968 P.3       1 ACP        -1.2804
      2 O1G        -1.3340   -6.7618   -3.3270 O.co2     1 ACP         0.3195
      3 O2G        -0.5774   -4.5873   -2.0255 O.co2     1 ACP         0.3195
      4 O3G        -1.9218   -4.4236   -4.2031 O.3       1 ACP         0.0326
      5 PB         -3.6194   -6.2312   -0.5438 P.3       1 ACP        -1.2804
      6 O1B        -3.4655   -7.6933   -0.8920 O.co2     1 ACP         0.3195
      7 O2B        -4.9057   -5.6687    0.0159 O.co2     1 ACP         0.3195
      8 C3B        -3.2071   -5.2565   -2.0584 C.3       1 ACP         0.8942
      9 PA         -1.8573   -6.2723    1.8436 P.3       1 ACP        -1.1062
     10 O1A        -1.3494   -7.6898    1.6944 O.co2     1 ACP         0.3195
     11 O2A        -2.9186   -5.9375    2.8694 O.co2     1 ACP         0.3195
     12 O3A        -2.3670   -5.7503    0.3826 O.3       1 ACP         0.4672
     13 O5'        -0.5697   -5.2855    2.0524 O.3       1 ACP         0.1618
     14 C5'        -0.7840   -3.8935    2.2172 C.3       1 ACP         0.1504
     15 C4'        -0.0724   -3.1466    1.1027 C.3       1 ACP         0.1111
     16 O4'        -0.8674   -3.1929   -0.0945 O.3       1 ACP        -0.1436
     17 C3'         0.1338   -1.6715    1.4027 C.3       1 ACP         0.1111
     18 O3'         1.2893   -1.4445    2.1808 O.3       1 ACP        -0.2728
     19 C2'         0.2158   -1.0724    0.0128 C.3       1 ACP         0.1111
     20 O2'         1.5141   -1.2448   -0.5513 O.3       1 ACP        -0.2728
     21 C1'        -0.7897   -1.9176   -0.7583 C.3       1 ACP         0.2693
     22 N9         -2.1040   -1.3333   -0.7704 N.pl3     1 ACP        -0.3222
     23 C8         -3.2124   -1.5345    0.2719 C.ar      1 ACP         0.1640
     24 N7         -4.2964   -0.8234   -0.0828 N.2       1 ACP        -0.1640
     25 C5         -3.8754   -0.2386   -1.2478 C.ar      1 ACP         0.0820
     26 C6         -4.7432    0.6719   -2.0470 C.ar      1 ACP         0.1640
     27 N6         -5.9725    0.9415   -1.6366 N.pl3     1 ACP        -0.4916
     28 N1         -4.1703    1.1517   -3.1536 N.pl3     1 ACP        -0.4390
     29 C2         -2.8174    0.7994   -3.5215 C.ar      1 ACP         0.5691
     30 N3         -2.0475    0.0097   -2.8393 N.ar      1 ACP        -0.4283
     31 C4         -2.6278   -0.4836   -1.7071 C.ar      1 ACP         0.2226
     32 HOG3       -1.2633   -4.3657   -4.9278 H         1 ACP         0.2010
     33 H3B1       -3.9473   -5.5332   -2.8174 H         1 ACP        -0.0393
     34 H3B2       -3.3795   -4.2056   -1.8008 H         1 ACP        -0.0393
     35 H5'1       -1.8599   -3.6946    2.1849 H         1 ACP        -0.0393
     36 H5'2       -0.3934   -3.5881    3.1930 H         1 ACP        -0.0393
     37 H4'         0.8883   -3.6447    0.8783 H         1 ACP        -0.0393
     38 H3'        -0.7368   -1.2359    1.9871 H         1 ACP        -0.0393
     39 HO3'        1.3407   -0.4871    2.3218 H         1 ACP         0.2010
     40 H2'        -0.0343   -0.0280    0.0196 H         1 ACP        -0.0393
     41 HO2'        2.1443   -0.7955    0.0378 H         1 ACP         0.2010
     42 H1'        -0.5175   -2.1046   -1.7826 H         1 ACP        -0.0393
     43 H8         -3.2310   -2.1319    1.1889 H         1 ACP         0.0000
     44 HN61       -6.3230    0.5316   -0.7829 H         1 ACP         0.2048
     45 HN62       -6.5628    1.5584   -2.1760 H         1 ACP         0.2048
     46 H2         -2.4822    1.2710   -4.4579 H         1 ACP        -0.1292
     47 H47        -4.7200    1.7780   -3.7346 H         1 ACP         0.2048
@<TRIPOS>BOND
     1    1    2 2
     2    1    3 1
     3    1    4 1
     4    1    8 1
     5    4   32 1
     6    5    6 2
     7    5    7 1
     8    5    8 1
     9    5   12 1
    10    8   33 1
    11    8   34 1
    12    9   10 2
    13    9   11 1
    14    9   12 1
    15    9   13 1
    16   13   14 1
    17   14   15 1
    18   14   35 1
    19   14   36 1
    20   15   16 1
    21   15   17 1
    22   15   37 1
    23   16   21 1
    24   17   18 1
    25   17   19 1
    26   17   38 1
    27   18   39 1
    28   19   20 1
    29   19   21 1
    30   19   40 1
    31   20   41 1
    32   21   22 1
    33   21   42 1
    34   22   23 ar
    35   22   31 ar
    36   23   24 ar
    37   23   43 1
    38   24   25 ar
    39   25   26 ar
    40   25   31 ar
    41   26   27 1
    42   26   28 ar
    43   27   44 1
    44   27   45 1
    45   28   29 ar
    46   28   47 1
    47   29   30 ar
    48   29   46 1
    49   30   31 ar
@<TRIPOS>SUBSTRUCTURE
     1 ACP         1 GROUP 0 A     ****
@<TRIPOS>MOLECULE
[[5-(6-amino-1,8-dihydropurine-6,8-diylium-7-id-9-yl)-3,4-dihydroxy-tetrahydrofuran-2-yl]methoxy-oxido-phosphoryl]oxy-[[hydroxy(oxido)phosphoryl]methyl]phosphinate
   47    49     1     0     0
SMALL
USER_CHARGES

@<TRIPOS>ATOM
      1 PG         -5.6973   -4.9572    3.9499 P.3       1 ACP        -1.2804
      2 O1G        -7.1773   -5.2128    4.1142 O.co2     1 ACP         0.3195
      3 O2G        -5.1471   -4.1206    2.8178 O.co2     1 ACP         0.3195
      4 O3G        -5.0788   -4.4273    5.3629 O.3       1 ACP         0.0326
      5 PB         -3.0232   -6.7896    3.6912 P.3       1 ACP        -1.2804
      6 O1B        -2.7230   -8.2703    3.6833 O.co2     1 ACP         0.3195
      7 O2B        -2.3656   -5.8408    4.6667 O.co2     1 ACP         0.3195
      8 C3B        -4.8506   -6.5977    3.8856 C.3       1 ACP         0.8942
      9 PA         -1.6235   -6.1545    1.1527 P.3       1 ACP        -1.1062
     10 O1A        -2.0102   -5.3284   -0.0547 O.co2     1 ACP         0.3195
     11 O2A        -1.0989   -7.5643    0.9863 O.co2     1 ACP         0.3195
     12 O3A        -2.8926   -6.1925    2.1797 O.3       1 ACP         0.4672
     13 O5'        -0.5697   -5.2855    2.0524 O.3       1 ACP         0.1618
     14 C5'        -0.7840   -3.8935    2.2172 C.3       1 ACP         0.1504
     15 C4'        -0.0724   -3.1466    1.1027 C.3       1 ACP         0.1111
     16 O4'        -0.8674   -3.1929   -0.0945 O.3       1 ACP        -0.1436
     17 C3'         0.1338   -1.6715    1.4027 C.3       1 ACP         0.1111
     18 O3'         1.2893   -1.4445    2.1808 O.3       1 ACP        -0.2728
     19 C2'         0.2158   -1.0724    0.0128 C.3       1 ACP         0.1111
     20 O2'         1.5141   -1.2448   -0.5513 O.3       1 ACP        -0.2728
     21 C1'        -0.7897   -1.9176   -0.7583 C.3       1 ACP         0.2693
     22 N9         -2.1040   -1.3333   -0.7704 N.pl3     1 ACP        -0.3222
     23 C8         -3.2124   -1.5345    0.2719 C.ar      1 ACP         0.1640
     24 N7         -4.2964   -0.8234   -0.0828 N.2       1 ACP        -0.1640
     25 C5         -3.8754   -0.2386   -1.2478 C.ar      1 ACP         0.0820
     26 C6         -4.7432    0.6719   -2.0470 C.ar      1 ACP         0.1640
     27 N6         -5.9725    0.9415   -1.6366 N.pl3     1 ACP        -0.4916
     28 N1         -4.1703    1.1517   -3.1536 N.pl3     1 ACP        -0.4390
     29 C2         -2.8174    0.7994   -3.5215 C.ar      1 ACP         0.5691
     30 N3         -2.0475    0.0097   -2.8393 N.ar      1 ACP        -0.4283
     31 C4         -2.6278   -0.4836   -1.7071 C.ar      1 ACP         0.2226
     32 HOG3       -5.4355   -3.5988    5.7483 H         1 ACP         0.2010
     33 H3B1       -5.3108   -7.1440    3.0547 H         1 ACP        -0.0393
     34 H3B2       -5.1156   -7.1233    4.8097 H         1 ACP        -0.0393
     35 H5'1       -1.8599   -3.6946    2.1849 H         1 ACP        -0.0393
     36 H5'2       -0.3934   -3.5881    3.1930 H         1 ACP        -0.0393
     37 H4'         0.8883   -3.6447    0.8783 H         1 ACP        -0.0393
     38 H3'        -0.7368   -1.2359    1.9871 H         1 ACP        -0.0393
     39 HO3'        2.0373   -1.7816    1.6651 H         1 ACP         0.2010
     40 H2'        -0.0343   -0.0280    0.0196 H         1 ACP        -0.0393
     41 HO2'        1.4978   -0.8409   -1.4361 H         1 ACP         0.2010
     42 H1'        -0.5175   -2.1046   -1.7826 H         1 ACP        -0.0393
     43 H8         -3.2310   -2.1319    1.1889 H         1 ACP         0.0000
     44 HN61       -6.3230    0.5316   -0.7829 H         1 ACP         0.2048
     45 HN62       -6.5628    1.5584   -2.1760 H         1 ACP         0.2048
     46 H2         -2.4822    1.2710   -4.4579 H         1 ACP        -0.1292
     47 H47        -4.7200    1.7780   -3.7346 H         1 ACP         0.2048
@<TRIPOS>BOND
     1    1    2 2
     2    1    3 1
     3    1    4 1
     4    1    8 1
     5    4   32 1
     6    5    6 2
     7    5    7 1
     8    5    8 1
     9    5   12 1
    10    8   33 1
    11    8   34 1
    12    9   10 2
    13    9   11 1
    14    9   12 1
    15    9   13 1
    16   13   14 1
    17   14   15 1
    18   14   35 1
    19   14   36 1
    20   15   16 1
    21   15   17 1
    22   15   37 1
    23   16   21 1
    24   17   18 1
    25   17   19 1
    26   17   38 1
    27   18   39 1
    28   19   20 1
    29   19   21 1
    30   19   40 1
    31   20   41 1
    32   21   22 1
    33   21   42 1
    34   22   23 ar
    35   22   31 ar
    36   23   24 ar
    37   23   43 1
    38   24   25 ar
    39   25   26 ar
    40   25   31 ar
    41   26   27 1
    42   26   28 ar
    43   27   44 1
    44   27   45 1
    45   28   29 ar
    46   28   47 1
    47   29   30 ar
    48   29   46 1
    49   30   31 ar
@<TRIPOS>SUBSTRUCTURE
     1 ACP         1 GROUP 0 A     ****
@<TRIPOS>MOLECULE
[[5-(6-amino-1,8-dihydropurine-6,8-diylium-7-id-9-yl)-3,4-dihydroxy-tetrahydrofuran-2-yl]methoxy-oxido-phosphoryl]oxy-[[hydroxy(oxido)phosphoryl]methyl]phosphinate
   47    49     1     0     0
SMALL
USER_CHARGES

@<TRIPOS>ATOM
      1 PG         -2.0972   -1.8427   -2.7754 P.3       1 ACP        -1.2804
      2 O1G        -3.3109   -2.2546   -1.9754 O.co2     1 ACP         0.3195
      3 O2G        -2.1585   -0.7609   -3.8290 O.co2     1 ACP         0.3195
      4 O3G        -0.8570   -1.5387   -1.7608 O.3       1 ACP         0.0326
      5 PB          0.0763   -3.3491   -4.6681 P.3       1 ACP        -1.2804
      6 O1B        -0.2180   -2.4312   -5.8315 O.co2     1 ACP         0.3195
      7 O2B         0.4990   -4.7868   -4.8647 O.co2     1 ACP         0.3195
      8 C3B        -1.4180   -3.3598   -3.5813 C.3       1 ACP         0.8942
      9 PA          2.6179   -2.0499   -3.8561 P.3       1 ACP        -1.1062
     10 O1A         2.5535   -0.8721   -4.8040 O.co2     1 ACP         0.3195
     11 O2A         3.5312   -3.2219   -4.1438 O.co2     1 ACP         0.3195
     12 O3A         1.1027   -2.6171   -3.6342 O.3       1 ACP         0.4672
     13 O5'         2.9202   -1.4821   -2.3524 O.3       1 ACP         0.1618
     14 C5'         2.2816   -0.2918   -1.9206 C.3       1 ACP         0.1504
     15 C4'         2.7248    0.0226   -0.4980 C.3       1 ACP         0.1111
     16 O4'         2.4697    1.4219   -0.2462 O.3       1 ACP        -0.1436
     17 C3'         1.9404   -0.7419    0.5596 C.3       1 ACP         0.1111
     18 O3'         2.7418   -0.8086    1.7389 O.3       1 ACP        -0.2728
     19 C2'         0.7477    0.1630    0.7858 C.3       1 ACP         0.1111
     20 O2'         0.1373   -0.0577    2.0407 O.3       1 ACP        -0.2728
     21 C1'         1.3733    1.5427    0.6747 C.3       1 ACP         0.2693
     22 N9          0.4520    2.5240    0.1767 N.pl3     1 ACP        -0.3222
     23 C8          0.5793    3.3338   -1.1209 C.ar      1 ACP         0.1640
     24 N7         -0.4807    4.1508   -1.2458 N.2       1 ACP        -0.1640
     25 C5         -1.1921    3.8572   -0.1126 C.ar      1 ACP         0.0820
     26 C6         -2.4855    4.5203    0.2163 C.ar      1 ACP         0.1640
     27 N6         -2.9873    5.4319   -0.6020 N.pl3     1 ACP        -0.4916
     28 N1         -3.0414    4.1119    1.3596 N.pl3     1 ACP        -0.4390
     29 C2         -2.4169    3.1071    2.1904 C.ar      1 ACP         0.5691
     30 N3         -1.2928    2.5191    1.9210 N.ar      1 ACP        -0.4283
     31 C4         -0.7202    2.9326    0.7534 C.ar      1 ACP         0.2226
     32 HOG3       -0.9654   -0.8334   -1.0878 H         1 ACP         0.2010
     33 H3B1       -2.2352   -3.7766   -4.1805 H         1 ACP        -0.0393
     34 H3B2       -1.2048   -4.0728   -2.7772 H         1 ACP        -0.0393
     35 H5'1        2.5581    0.5235   -2.5966 H         1 ACP        -0.0393
     36 H5'2        1.1974   -0.4370   -1.9607 H         1 ACP        -0.0393
     37 H4'         3.8046   -0.1390   -0.4011 H         1 ACP        -0.0393
     38 H3'         1.6787   -1.7627    0.2719 H         1 ACP        -0.0393
     39 HO3'        3.5553   -1.2733    1.4913 H         1 ACP         0.2010
     40 H2'         0.0002   -0.0084   -0.0014 H         1 ACP        -0.0393
     41 HO2'        0.8091    0.1203    2.7213 H         1 ACP         0.2010
     42 H1'         1.7718    1.9211    1.6015 H         1 ACP        -0.0393
     43 H8          1.3565    3.3309   -1.8916 H         1 ACP         0.0000
     44 HN61       -2.4952    5.6785   -1.4487 H         1 ACP         0.2048
     45 HN62       -3.8637    5.8828   -0.3819 H         1 ACP         0.2048
     46 H2         -2.9911    2.8734    3.1000 H         1 ACP        -0.1292
     47 H47        -3.9253    4.5332    1.6302 H         1 ACP         0.2048
@<TRIPOS>BOND
     1    1    2 2
     2    1    3 1
     3    1    4 1
     4    1    8 1
     5    4   32 1
     6    5    6 2
     7    5    7 1
     8    5    8 1
     9    5   12 1
    10    8   33 1
    11    8   34 1
    12    9   10 2
    13    9   11 1
    14    9   12 1
    15    9   13 1
    16   13   14 1
    17   14   15 1
    18   14   35 1
    19   14   36 1
    20   15   16 1
    21   15   17 1
    22   15   37 1
    23   16   21 1
    24   17   18 1
    25   17   19 1
    26   17   38 1
    27   18   39 1
    28   19   20 1
    29   19   21 1
    30   19   40 1
    31   20   41 1
    32   21   22 1
    33   21   42 1
    34   22   23 ar
    35   22   31 ar
    36   23   24 ar
    37   23   43 1
    38   24   25 ar
    39   25   26 ar
    40   25   31 ar
    41   26   27 1
    42   26   28 ar
    43   27   44 1
    44   27   45 1
    45   28   29 ar
    46   28   47 1
    47   29   30 ar
    48   29   46 1
    49   30   31 ar
@<TRIPOS>SUBSTRUCTURE
     1 ACP         1 GROUP 0 A     ****
@<TRIPOS>MOLECULE
[[5-(6-amino-1,8-dihydropurine-6,8-diylium-7-id-9-yl)-3,4-dihydroxy-tetrahydrofuran-2-yl]methoxy-oxido-phosphoryl]oxy-[[hydroxy(oxido)phosphoryl]methyl]phosphinate
   47    49     1     0     0
SMALL
USER_CHARGES

@<TRIPOS>ATOM
      1 PG          5.9291   -2.4310    0.0070 P.3       1 ACP        -1.2804
      2 O1G         6.8475   -3.5046    0.5426 O.co2     1 ACP         0.3195
      3 O2G         4.6253   -2.7598   -0.6832 O.co2     1 ACP         0.3195
      4 O3G         5.6593   -1.3194    1.1695 O.3       1 ACP         0.0326
      5 PB          6.2091    0.0726   -2.0493 P.3       1 ACP        -1.2804
      6 O1B         7.3183    0.6671   -2.8853 O.co2     1 ACP         0.3195
      7 O2B         5.4315    0.8916   -1.0449 O.co2     1 ACP         0.3195
      8 C3B         6.9141   -1.3777   -1.1473 C.3       1 ACP         0.8942
      9 PA          3.9534   -0.2075   -3.9573 P.3       1 ACP        -1.1062
     10 O1A         3.2055   -1.4082   -4.4944 O.co2     1 ACP         0.3195
     11 O2A         4.5033    0.8426   -4.8984 O.co2     1 ACP         0.3195
     12 O3A         5.1710   -0.7403   -3.0083 O.3       1 ACP         0.4672
     13 O5'         3.0198    0.5138   -2.8245 O.3       1 ACP         0.1618
     14 C5'         2.2816   -0.2918   -1.9206 C.3       1 ACP         0.1504
     15 C4'         2.7248    0.0226   -0.4980 C.3       1 ACP         0.1111
     16 O4'         2.4697    1.4219   -0.2462 O.3       1 ACP        -0.1436
     17 C3'         1.9404   -0.7419    0.5596 C.3       1 ACP         0.1111
     18 O3'         2.7418   -0.8086    1.7389 O.3       1 ACP        -0.2728
     19 C2'         0.7477    0.1630    0.7858 C.3       1 ACP         0.1111
     20 O2'         0.1373   -0.0577    2.0407 O.3       1 ACP        -0.2728
     21 C1'         1.3733    1.5427    0.6747 C.3       1 ACP         0.2693
     22 N9          0.4520    2.5240    0.1767 N.pl3     1 ACP        -0.3222
     23 C8         -0.3054    2.4845   -1.1576 C.ar      1 ACP         0.1640
     24 N7         -1.0755    3.5806   -1.2691 N.2       1 ACP        -0.1640
     25 C5         -0.8043    4.2306   -0.0942 C.ar      1 ACP         0.0820
     26 C6         -1.4324    5.5335    0.2646 C.ar      1 ACP         0.1640
     27 N6         -2.2885    6.1055   -0.5675 N.pl3     1 ACP        -0.4916
     28 N1         -1.0537    6.0229    1.4478 N.pl3     1 ACP        -0.4390
     29 C2         -0.1096    5.3242    2.2908 C.ar      1 ACP         0.5691
     30 N3          0.4468    4.1904    1.9960 N.ar      1 ACP        -0.4283
     31 C4          0.0631    3.6855    0.7877 C.ar      1 ACP         0.2226
     32 HOG3        5.2425   -1.6112    2.0081 H         1 ACP         0.2010
     33 H3B1        7.3124   -2.0551   -1.9108 H         1 ACP        -0.0393
     34 H3B2        7.7651   -0.9950   -0.5730 H         1 ACP        -0.0393
     35 H5'1        1.2153   -0.0781   -2.0454 H         1 ACP        -0.0393
     36 H5'2        2.4645   -1.3454   -2.1547 H         1 ACP        -0.0393
     37 H4'         3.8046   -0.1390   -0.4011 H         1 ACP        -0.0393
     38 H3'         1.6787   -1.7627    0.2719 H         1 ACP        -0.0393
     39 HO3'        2.2231   -1.2979    2.3952 H         1 ACP         0.2010
     40 H2'         0.0002   -0.0084   -0.0014 H         1 ACP        -0.0393
     41 HO2'       -0.6132    0.5577    2.1063 H         1 ACP         0.2010
     42 H1'         1.7718    1.9211    1.6015 H         1 ACP        -0.0393
     43 H8         -0.2991    1.7413   -1.9611 H         1 ACP         0.0000
     44 HN61       -2.5167    5.6603   -1.4447 H         1 ACP         0.2048
     45 HN62       -2.7159    6.9882   -0.3270 H         1 ACP         0.2048
     46 H2          0.1059    5.8491    3.2340 H         1 ACP        -0.1292
     47 H47        -1.4532    6.9099    1.7401 H         1 ACP         0.2048
@<TRIPOS>BOND
     1    1    2 2
     2    1    3 1
     3    1    4 1
     4    1    8 1
     5    4   32 1
     6    5    6 2
     7    5    7 1
     8    5    8 1
     9    5   12 1
    10    8   33 1
    11    8   34 1
    12    9   10 2
    13    9   11 1
    14    9   12 1
    15    9   13 1
    16   13   14 1
    17   14   15 1
    18   14   35 1
    19   14   36 1
    20   15   16 1
    21   15   17 1
    22   15   37 1
    23   16   21 1
    24   17   18 1
    25   17   19 1
    26   17   38 1
    27   18   39 1
    28   19   20 1
    29   19   21 1
    30   19   40 1
    31   20   41 1
    32   21   22 1
    33   21   42 1
    34   22   23 ar
    35   22   31 ar
    36   23   24 ar
    37   23   43 1
    38   24   25 ar
    39   25   26 ar
    40   25   31 ar
    41   26   27 1
    42   26   28 ar
    43   27   44 1
    44   27   45 1
    45   28   29 ar
    46   28   47 1
    47   29   30 ar
    48   29   46 1
    49   30   31 ar
@<TRIPOS>SUBSTRUCTURE
     1 ACP         1 GROUP 0 A     ****
@<TRIPOS>MOLECULE
[[5-(6-amino-1,8-dihydropurine-6,8-diylium-7-id-9-yl)-3,4-dihydroxy-tetrahydrofuran-2-yl]methoxy-oxido-phosphoryl]oxy-[[hydroxy(oxido)phosphoryl]methyl]phosphinate
   47    49     1     0     0
SMALL
USER_CHARGES

@<TRIPOS>ATOM
      1 PG          2.8049   -3.2798    5.2260 P.3       1 ACP        -1.2804
      2 O1G         2.0460   -2.9808    3.9542 O.co2     1 ACP         0.3195
      3 O2G         4.1234   -2.6158    5.5500 O.co2     1 ACP         0.3195
      4 O3G         1.8002   -3.1367    6.5028 O.3       1 ACP         0.0326
      5 PB          1.6940   -6.3345    5.3251 P.3       1 ACP        -1.2804
      6 O1B         0.8574   -6.0493    6.5505 O.co2     1 ACP         0.3195
      7 O2B         2.2988   -7.6945    5.0629 O.co2     1 ACP         0.3195
      8 C3B         3.0737   -5.1058    5.3002 C.3       1 ACP         0.8942
      9 PA         -0.5394   -6.2504    3.3727 P.3       1 ACP        -1.1062
     10 O1A        -1.6208   -5.7868    4.3241 O.co2     1 ACP         0.3195
     11 O2A        -0.4652   -7.6975    2.9361 O.co2     1 ACP         0.3195
     12 O3A         0.9101   -5.8215    3.9908 O.3       1 ACP         0.4672
     13 O5'        -0.5697   -5.2855    2.0524 O.3       1 ACP         0.1618
     14 C5'        -0.7840   -3.8935    2.2172 C.3       1 ACP         0.1504
     15 C4'        -0.0724   -3.1466    1.1027 C.3       1 ACP         0.1111
     16 O4'        -0.8674   -3.1929   -0.0945 O.3       1 ACP        -0.1436
     17 C3'         0.1338   -1.6715    1.4027 C.3       1 ACP         0.1111
     18 O3'         1.2893   -1.4445    2.1808 O.3       1 ACP        -0.2728
     19 C2'         0.2158   -1.0724    0.0128 C.3       1 ACP         0.1111
     20 O2'         1.5141   -1.2448   -0.5513 O.3       1 ACP        -0.2728
     21 C1'        -0.7897   -1.9176   -0.7583 C.3       1 ACP         0.2693
     22 N9         -2.1040   -1.3333   -0.7704 N.pl3     1 ACP        -0.3222
     23 C8         -3.2124   -1.5345    0.2719 C.ar      1 ACP         0.1640
     24 N7         -4.2964   -0.8234   -0.0828 N.2       1 ACP        -0.1640
     25 C5         -3.8754   -0.2386   -1.2478 C.ar      1 ACP         0.0820
     26 C6         -4.7432    0.6719   -2.0470 C.ar      1 ACP         0.1640
     27 N6         -5.9725    0.9415   -1.6366 N.pl3     1 ACP        -0.4916
     28 N1         -4.1703    1.1517   -3.1536 N.pl3     1 ACP        -0.4390
     29 C2         -2.8174    0.7994   -3.5215 C.ar      1 ACP         0.5691
     30 N3         -2.0475    0.0097   -2.8393 N.ar      1 ACP        -0.4283
     31 C4         -2.6278   -0.4836   -1.7071 C.ar      1 ACP         0.2226
     32 HOG3        1.3700   -2.2702    6.6647 H         1 ACP         0.2010
     33 H3B1        3.6689   -5.2882    6.2019 H         1 ACP        -0.0393
     34 H3B2        3.6977   -5.3657    4.4380 H         1 ACP        -0.0393
     35 H5'1       -1.8599   -3.6946    2.1849 H         1 ACP        -0.0393
     36 H5'2       -0.3934   -3.5881    3.1930 H         1 ACP        -0.0393
     37 H4'         0.8883   -3.6447    0.8783 H         1 ACP        -0.0393
     38 H3'        -0.7368   -1.2359    1.9871 H         1 ACP        -0.0393
     39 HO3'        1.1625   -1.9325    3.0084 H         1 ACP         0.2010
     40 H2'        -0.0343   -0.0280    0.0196 H         1 ACP        -0.0393
     41 HO2'        2.1443   -0.7955    0.0378 H         1 ACP         0.2010
     42 H1'        -0.5175   -2.1046   -1.7826 H         1 ACP        -0.0393
     43 H8         -3.2310   -2.1319    1.1889 H         1 ACP         0.0000
     44 HN61       -6.3230    0.5316   -0.7829 H         1 ACP         0.2048
     45 HN62       -6.5628    1.5584   -2.1760 H         1 ACP         0.2048
     46 H2         -2.4822    1.2710   -4.4579 H         1 ACP        -0.1292
     47 H47        -4.7200    1.7780   -3.7346 H         1 ACP         0.2048
@<TRIPOS>BOND
     1    1    2 2
     2    1    3 1
     3    1    4 1
     4    1    8 1
     5    4   32 1
     6    5    6 2
     7    5    7 1
     8    5    8 1
     9    5   12 1
    10    8   33 1
    11    8   34 1
    12    9   10 2
    13    9   11 1
    14    9   12 1
    15    9   13 1
    16   13   14 1
    17   14   15 1
    18   14   35 1
    19   14   36 1
    20   15   16 1
    21   15   17 1
    22   15   37 1
    23   16   21 1
    24   17   18 1
    25   17   19 1
    26   17   38 1
    27   18   39 1
    28   19   20 1
    29   19   21 1
    30   19   40 1
    31   20   41 1
    32   21   22 1
    33   21   42 1
    34   22   23 ar
    35   22   31 ar
    36   23   24 ar
    37   23   43 1
    38   24   25 ar
    39   25   26 ar
    40   25   31 ar
    41   26   27 1
    42   26   28 ar
    43   27   44 1
    44   27   45 1
    45   28   29 ar
    46   28   47 1
    47   29   30 ar
    48   29   46 1
    49   30   31 ar
@<TRIPOS>SUBSTRUCTURE
     1 ACP         1 GROUP 0 A     ****
@<TRIPOS>MOLECULE
[[5-(6-amino-1,8-dihydropurine-6,8-diylium-7-id-9-yl)-3,4-dihydroxy-tetrahydrofuran-2-yl]methoxy-oxido-phosphoryl]oxy-[[hydroxy(oxido)phosphoryl]methyl]phosphinate
   47    49     1     0     0
SMALL
USER_CHARGES

@<TRIPOS>ATOM
      1 PG         -5.7811   -4.3001    2.1042 P.3       1 ACP        -1.2804
      2 O1G        -6.8262   -4.1394    1.0249 O.co2     1 ACP         0.3195
      3 O2G        -4.4704   -3.5484    2.0718 O.co2     1 ACP         0.3195
      4 O3G        -6.4779   -4.1077    3.5661 O.3       1 ACP         0.0326
      5 PB         -4.1485   -6.7825    3.4260 P.3       1 ACP        -1.2804
      6 O1B        -4.1072   -8.2794    3.2254 O.co2     1 ACP         0.3195
      7 O2B        -4.4336   -6.1591    4.7730 O.co2     1 ACP         0.3195
      8 C3B        -5.3823   -6.0992    2.2324 C.3       1 ACP         0.8942
      9 PA         -1.2314   -6.3276    3.1254 P.3       1 ACP        -1.1062
     10 O1A        -0.8495   -7.7340    2.7182 O.co2     1 ACP         0.3195
     11 O2A        -0.9696   -5.8343    4.5320 O.co2     1 ACP         0.3195
     12 O3A        -2.8126   -6.1031    2.7842 O.3       1 ACP         0.4672
     13 O5'        -0.5697   -5.2855    2.0524 O.3       1 ACP         0.1618
     14 C5'        -0.7840   -3.8935    2.2172 C.3       1 ACP         0.1504
     15 C4'        -0.0724   -3.1466    1.1027 C.3       1 ACP         0.1111
     16 O4'        -0.8674   -3.1929   -0.0945 O.3       1 ACP        -0.1436
     17 C3'         0.1338   -1.6715    1.4027 C.3       1 ACP         0.1111
     18 O3'         1.2893   -1.4445    2.1808 O.3       1 ACP        -0.2728
     19 C2'         0.2158   -1.0724    0.0128 C.3       1 ACP         0.1111
     20 O2'         1.5141   -1.2448   -0.5513 O.3       1 ACP        -0.2728
     21 C1'        -0.7897   -1.9176   -0.7583 C.3       1 ACP         0.2693
     22 N9         -2.1040   -1.3333   -0.7704 N.pl3     1 ACP        -0.3222
     23 C8         -3.3877   -1.9383   -0.1859 C.ar      1 ACP         0.1640
     24 N7         -4.4144   -1.0952   -0.3898 N.2       1 ACP        -0.1640
     25 C5         -3.7988   -0.0622   -1.0459 C.ar      1 ACP         0.0820
     26 C6         -4.5350    1.1514   -1.4997 C.ar      1 ACP         0.1640
     27 N6         -5.8347    1.2592   -1.2722 N.pl3     1 ACP        -0.4916
     28 N1         -3.7771    2.0576   -2.1221 N.pl3     1 ACP        -0.4390
     29 C2         -2.3607    1.8514   -2.3252 C.ar      1 ACP         0.5691
     30 N3         -1.7031    0.8030   -1.9377 N.ar      1 ACP        -0.4283
     31 C4         -2.4728   -0.1265   -1.3008 C.ar      1 ACP         0.2226
     32 HOG3       -6.9166   -3.2535    3.7665 H         1 ACP         0.2010
     33 H3B1       -5.0536   -6.4088    1.2341 H         1 ACP        -0.0393
     34 H3B2       -6.3261   -6.6151    2.4410 H         1 ACP        -0.0393
     35 H5'1       -1.8599   -3.6946    2.1849 H         1 ACP        -0.0393
     36 H5'2       -0.3934   -3.5881    3.1930 H         1 ACP        -0.0393
     37 H4'         0.8883   -3.6447    0.8783 H         1 ACP        -0.0393
     38 H3'        -0.7368   -1.2359    1.9871 H         1 ACP        -0.0393
     39 HO3'        1.3407   -0.4871    2.3218 H         1 ACP         0.2010
     40 H2'        -0.0343   -0.0280    0.0196 H         1 ACP        -0.0393
     41 HO2'        1.4978   -0.8409   -1.4361 H         1 ACP         0.2010
     42 H1'        -0.5175   -2.1046   -1.7826 H         1 ACP        -0.0393
     43 H8         -3.5590   -2.8873    0.3318 H         1 ACP         0.0000
     44 HN61       -6.3278    0.5206   -0.7915 H         1 ACP         0.2048
     45 HN62       -6.3361    2.0806   -1.5783 H         1 ACP         0.2048
     46 H2         -1.8692    2.6833   -2.8525 H         1 ACP        -0.1292
     47 H47        -4.2310    2.9046   -2.4517 H         1 ACP         0.2048
@<TRIPOS>BOND
     1    1    2 2
     2    1    3 1
     3    1    4 1
     4    1    8 1
     5    4   32 1
     6    5    6 2
     7    5    7 1
     8    5    8 1
     9    5   12 1
    10    8   33 1
    11    8   34 1
    12    9   10 2
    13    9   11 1
    14    9   12 1
    15    9   13 1
    16   13   14 1
    17   14   15 1
    18   14   35 1
    19   14   36 1
    20   15   16 1
    21   15   17 1
    22   15   37 1
    23   16   21 1
    24   17   18 1
    25   17   19 1
    26   17   38 1
    27   18   39 1
    28   19   20 1
    29   19   21 1
    30   19   40 1
    31   20   41 1
    32   21   22 1
    33   21   42 1
    34   22   23 ar
    35   22   31 ar
    36   23   24 ar
    37   23   43 1
    38   24   25 ar
    39   25   26 ar
    40   25   31 ar
    41   26   27 1
    42   26   28 ar
    43   27   44 1
    44   27   45 1
    45   28   29 ar
    46   28   47 1
    47   29   30 ar
    48   29   46 1
    49   30   31 ar
@<TRIPOS>SUBSTRUCTURE
     1 ACP         1 GROUP 0 A     ****
@<TRIPOS>MOLECULE
[[5-(6-amino-1,8-dihydropurine-6,8-diylium-7-id-9-yl)-3,4-dihydroxy-tetrahydrofuran-2-yl]methoxy-oxido-phosphoryl]oxy-[[hydroxy(oxido)phosphoryl]methyl]phosphinate
   47    49     1     0     0
SMALL
USER_CHARGES

@<TRIPOS>ATOM
      1 PG         -2.0972   -1.8427   -2.7754 P.3       1 ACP        -1.2804
      2 O1G        -3.3109   -2.2546   -1.9754 O.co2     1 ACP         0.3195
      3 O2G        -2.1585   -0.7609   -3.8290 O.co2     1 ACP         0.3195
      4 O3G        -0.8570   -1.5387   -1.7608 O.3       1 ACP         0.0326
      5 PB          0.0763   -3.3491   -4.6681 P.3       1 ACP        -1.2804
      6 O1B        -0.2180   -2.4312   -5.8315 O.co2     1 ACP         0.3195
      7 O2B         0.4990   -4.7868   -4.8647 O.co2     1 ACP         0.3195
      8 C3B        -1.4180   -3.3598   -3.5813 C.3       1 ACP         0.8942
      9 PA          2.6179   -2.0499   -3.8561 P.3       1 ACP        -1.1062
     10 O1A         2.5535   -0.8721   -4.8040 O.co2     1 ACP         0.3195
     11 O2A         3.5312   -3.2219   -4.1438 O.co2     1 ACP         0.3195
     12 O3A         1.1027   -2.6171   -3.6342 O.3       1 ACP         0.4672
     13 O5'         2.9202   -1.4821   -2.3524 O.3       1 ACP         0.1618
     14 C5'         2.2816   -0.2918   -1.9206 C.3       1 ACP         0.1504
     15 C4'         2.7248    0.0226   -0.4980 C.3       1 ACP         0.1111
     16 O4'         2.4697    1.4219   -0.2462 O.3       1 ACP        -0.1436
     17 C3'         1.9404   -0.7419    0.5596 C.3       1 ACP         0.1111
     18 O3'         2.7418   -0.8086    1.7389 O.3       1 ACP        -0.2728
     19 C2'         0.7477    0.1630    0.7858 C.3       1 ACP         0.1111
     20 O2'         0.1373   -0.0577    2.0407 O.3       1 ACP        -0.2728
     21 C1'         1.3733    1.5427    0.6747 C.3       1 ACP         0.2693
     22 N9          0.4520    2.5240    0.1767 N.pl3     1 ACP        -0.3222
     23 C8         -1.0660    2.5608    0.3999 C.ar      1 ACP         0.1640
     24 N7         -1.5852    3.6333   -0.2221 N.2       1 ACP        -0.1640
     25 C5         -0.4682    4.1996   -0.7771 C.ar      1 ACP         0.0820
     26 C6         -0.5216    5.4476   -1.5899 C.ar      1 ACP         0.1640
     27 N6         -1.6813    6.0510   -1.7982 N.pl3     1 ACP        -0.4916
     28 N1          0.6621    5.8575   -2.0523 N.pl3     1 ACP        -0.4390
     29 C2          1.8795    5.1301   -1.7717 C.ar      1 ACP         0.5691
     30 N3          1.9458    4.0434   -1.0670 N.ar      1 ACP        -0.4283
     31 C4          0.7388    3.6199   -0.5917 C.ar      1 ACP         0.2226
     32 HOG3       -0.9654   -0.8334   -1.0878 H         1 ACP         0.2010
     33 H3B1       -2.2352   -3.7766   -4.1805 H         1 ACP        -0.0393
     34 H3B2       -1.2048   -4.0728   -2.7772 H         1 ACP        -0.0393
     35 H5'1        2.5581    0.5235   -2.5966 H         1 ACP        -0.0393
     36 H5'2        1.1974   -0.4370   -1.9607 H         1 ACP        -0.0393
     37 H4'         3.8046   -0.1390   -0.4011 H         1 ACP        -0.0393
     38 H3'         1.6787   -1.7627    0.2719 H         1 ACP        -0.0393
     39 HO3'        2.2231   -1.2979    2.3952 H         1 ACP         0.2010
     40 H2'         0.0002   -0.0084   -0.0014 H         1 ACP        -0.0393
     41 HO2'       -0.1554   -0.9852    2.0577 H         1 ACP         0.2010
     42 H1'         1.7718    1.9211    1.6015 H         1 ACP        -0.0393
     43 H8         -1.7235    1.8833    0.9537 H         1 ACP         0.0000
     44 HN61       -2.5296    5.6672   -1.4072 H         1 ACP         0.2048
     45 HN62       -1.7205    6.8969   -2.3483 H         1 ACP         0.2048
     46 H2          2.7750    5.5878   -2.2190 H         1 ACP        -0.1292
     47 H47         0.6808    6.7046   -2.6128 H         1 ACP         0.2048
@<TRIPOS>BOND
     1    1    2 2
     2    1    3 1
     3    1    4 1
     4    1    8 1
     5    4   32 1
     6    5    6 2
     7    5    7 1
     8    5    8 1
     9    5   12 1
    10    8   33 1
    11    8   34 1
    12    9   10 2
    13    9   11 1
    14    9   12 1
    15    9   13 1
    16   13   14 1
    17   14   15 1
    18   14   35 1
    19   14   36 1
    20   15   16 1
    21   15   17 1
    22   15   37 1
    23   16   21 1
    24   17   18 1
    25   17   19 1
    26   17   38 1
    27   18   39 1
    28   19   20 1
    29   19   21 1
    30   19   40 1
    31   20   41 1
    32   21   22 1
    33   21   42 1
    34   22   23 ar
    35   22   31 ar
    36   23   24 ar
    37   23   43 1
    38   24   25 ar
    39   25   26 ar
    40   25   31 ar
    41   26   27 1
    42   26   28 ar
    43   27   44 1
    44   27   45 1
    45   28   29 ar
    46   28   47 1
    47   29   30 ar
    48   29   46 1
    49   30   31 ar
@<TRIPOS>SUBSTRUCTURE
     1 ACP         1 GROUP 0 A     ****
@<TRIPOS>MOLECULE
[[5-(6-amino-1,8-dihydropurine-6,8-diylium-7-id-9-yl)-3,4-dihydroxy-tetrahydrofuran-2-yl]methoxy-oxido-phosphoryl]oxy-[[hydroxy(oxido)phosphoryl]methyl]phosphinate
   47    49     1     0     0
SMALL
USER_CHARGES

@<TRIPOS>ATOM
      1 PG          3.9763    4.6470   -0.6705 P.3       1 ACP        -1.2804
      2 O1G         5.0924    5.2899   -1.4604 O.co2     1 ACP         0.3195
      3 O2G         4.0583    3.2202   -0.1790 O.co2     1 ACP         0.3195
      4 O3G         3.5582    5.6217    0.5684 O.3       1 ACP         0.0326
      5 PB          2.2306    4.0752   -3.3539 P.3       1 ACP        -1.2804
      6 O1B         3.2837    4.6999   -4.2390 O.co2     1 ACP         0.3195
      7 O2B         0.7592    4.1259   -3.6956 O.co2     1 ACP         0.3195
      8 C3B         2.4276    4.7997   -1.6656 C.3       1 ACP         0.8942
      9 PA          2.9215    1.2532   -3.9587 P.3       1 ACP        -1.1062
     10 O1A         4.1641    1.5218   -4.7794 O.co2     1 ACP         0.3195
     11 O2A         1.6190    0.8783   -4.6320 O.co2     1 ACP         0.3195
     12 O3A         2.6524    2.5422   -2.9929 O.3       1 ACP         0.4672
     13 O5'         3.2883    0.1336   -2.8242 O.3       1 ACP         0.1618
     14 C5'         2.2816   -0.2918   -1.9206 C.3       1 ACP         0.1504
     15 C4'         2.7248    0.0226   -0.4980 C.3       1 ACP         0.1111
     16 O4'         2.4697    1.4219   -0.2462 O.3       1 ACP        -0.1436
     17 C3'         1.9404   -0.7419    0.5596 C.3       1 ACP         0.1111
     18 O3'         2.7418   -0.8086    1.7389 O.3       1 ACP        -0.2728
     19 C2'         0.7477    0.1630    0.7858 C.3       1 ACP         0.1111
     20 O2'         0.1373   -0.0577    2.0407 O.3       1 ACP        -0.2728
     21 C1'         1.3733    1.5427    0.6747 C.3       1 ACP         0.2693
     22 N9          0.4520    2.5240    0.1767 N.pl3     1 ACP        -0.3222
     23 C8         -0.3054    2.4845   -1.1576 C.ar      1 ACP         0.1640
     24 N7         -1.0755    3.5806   -1.2691 N.2       1 ACP        -0.1640
     25 C5         -0.8043    4.2306   -0.0942 C.ar      1 ACP         0.0820
     26 C6         -1.4324    5.5335    0.2646 C.ar      1 ACP         0.1640
     27 N6         -2.2885    6.1055   -0.5675 N.pl3     1 ACP        -0.4916
     28 N1         -1.0537    6.0229    1.4478 N.pl3     1 ACP        -0.4390
     29 C2         -0.1096    5.3242    2.2908 C.ar      1 ACP         0.5691
     30 N3          0.4468    4.1904    1.9960 N.ar      1 ACP        -0.4283
     31 C4          0.0631    3.6855    0.7877 C.ar      1 ACP         0.2226
     32 HOG3        4.2402    5.8484    1.2360 H         1 ACP         0.2010
     33 H3B1        2.2349    5.8738   -1.7638 H         1 ACP        -0.0393
     34 H3B2        1.6210    4.3766   -1.0565 H         1 ACP        -0.0393
     35 H5'1        1.3500    0.2325   -2.1560 H         1 ACP        -0.0393
     36 H5'2        2.1267   -1.3683   -2.0444 H         1 ACP        -0.0393
     37 H4'         3.8046   -0.1390   -0.4011 H         1 ACP        -0.0393
     38 H3'         1.6787   -1.7627    0.2719 H         1 ACP        -0.0393
     39 HO3'        2.2231   -1.2979    2.3952 H         1 ACP         0.2010
     40 H2'         0.0002   -0.0084   -0.0014 H         1 ACP        -0.0393
     41 HO2'       -0.6132    0.5577    2.1063 H         1 ACP         0.2010
     42 H1'         1.7718    1.9211    1.6015 H         1 ACP        -0.0393
     43 H8         -0.2991    1.7413   -1.9611 H         1 ACP         0.0000
     44 HN61       -2.5167    5.6603   -1.4447 H         1 ACP         0.2048
     45 HN62       -2.7159    6.9882   -0.3270 H         1 ACP         0.2048
     46 H2          0.1059    5.8491    3.2340 H         1 ACP        -0.1292
     47 H47        -1.4532    6.9099    1.7401 H         1 ACP         0.2048
@<TRIPOS>BOND
     1    1    2 2
     2    1    3 1
     3    1    4 1
     4    1    8 1
     5    4   32 1
     6    5    6 2
     7    5    7 1
     8    5    8 1
     9    5   12 1
    10    8   33 1
    11    8   34 1
    12    9   10 2
    13    9   11 1
    14    9   12 1
    15    9   13 1
    16   13   14 1
    17   14   15 1
    18   14   35 1
    19   14   36 1
    20   15   16 1
    21   15   17 1
    22   15   37 1
    23   16   21 1
    24   17   18 1
    25   17   19 1
    26   17   38 1
    27   18   39 1
    28   19   20 1
    29   19   21 1
    30   19   40 1
    31   20   41 1
    32   21   22 1
    33   21   42 1
    34   22   23 ar
    35   22   31 ar
    36   23   24 ar
    37   23   43 1
    38   24   25 ar
    39   25   26 ar
    40   25   31 ar
    41   26   27 1
    42   26   28 ar
    43   27   44 1
    44   27   45 1
    45   28   29 ar
    46   28   47 1
    47   29   30 ar
    48   29   46 1
    49   30   31 ar
@<TRIPOS>SUBSTRUCTURE
     1 ACP         1 GROUP 0 A     ****
@<TRIPOS>MOLECULE
[[5-(6-amino-1,8-dihydropurine-6,8-diylium-7-id-9-yl)-3,4-dihydroxy-tetrahydrofuran-2-yl]methoxy-oxido-phosphoryl]oxy-[[hydroxy(oxido)phosphoryl]methyl]phosphinate
   47    49     1     0     0
SMALL
USER_CHARGES

@<TRIPOS>ATOM
      1 PG         -5.0896   -2.8612    3.5097 P.3       1 ACP        -1.2804
      2 O1G        -4.4997   -1.8674    2.5365 O.co2     1 ACP         0.3195
      3 O2G        -4.3551   -3.2979    4.7563 O.co2     1 ACP         0.3195
      4 O3G        -6.6014   -2.3971    3.9084 O.3       1 ACP         0.0326
      5 PB         -4.2757   -5.3851    1.6276 P.3       1 ACP        -1.2804
      6 O1B        -3.6589   -4.4807    0.5862 O.co2     1 ACP         0.3195
      7 O2B        -4.9334   -6.6969    1.2658 O.co2     1 ACP         0.3195
      8 C3B        -5.5194   -4.3860    2.5598 C.3       1 ACP         0.8942
      9 PA         -1.7212   -6.2756    2.8475 P.3       1 ACP        -1.1062
     10 O1A        -1.7898   -7.6341    2.1847 O.co2     1 ACP         0.3195
     11 O2A        -1.1337   -6.1229    4.2339 O.co2     1 ACP         0.3195
     12 O3A        -3.2188   -5.6244    2.8457 O.3       1 ACP         0.4672
     13 O5'        -0.9728   -5.2427    1.8237 O.3       1 ACP         0.1618
     14 C5'        -0.7840   -3.8935    2.2172 C.3       1 ACP         0.1504
     15 C4'        -0.0724   -3.1466    1.1027 C.3       1 ACP         0.1111
     16 O4'        -0.8674   -3.1929   -0.0945 O.3       1 ACP        -0.1436
     17 C3'         0.1338   -1.6715    1.4027 C.3       1 ACP         0.1111
     18 O3'         1.2893   -1.4445    2.1808 O.3       1 ACP        -0.2728
     19 C2'         0.2158   -1.0724    0.0128 C.3       1 ACP         0.1111
     20 O2'         1.5141   -1.2448   -0.5513 O.3       1 ACP        -0.2728
     21 C1'        -0.7897   -1.9176   -0.7583 C.3       1 ACP         0.2693
     22 N9         -2.1040   -1.3333   -0.7704 N.pl3     1 ACP        -0.3222
     23 C8         -2.9659   -0.9765    0.4483 C.ar      1 ACP         0.1640
     24 N7         -4.1307   -0.4482    0.0350 N.2       1 ACP        -0.1640
     25 C5         -3.9835   -0.4834   -1.3265 C.ar      1 ACP         0.0820
     26 C6         -5.0367    0.0074   -2.2596 C.ar      1 ACP         0.1640
     27 N6         -6.1673    0.5005   -1.7791 N.pl3     1 ACP        -0.4916
     28 N1         -4.7242   -0.1024   -3.5532 N.pl3     1 ACP        -0.4390
     29 C2         -3.4603   -0.6562   -3.9841 C.ar      1 ACP         0.5691
     30 N3         -2.5322   -1.0878   -3.1877 N.ar      1 ACP        -0.4283
     31 C4         -2.8461   -0.9779   -1.8643 C.ar      1 ACP         0.2226
     32 HOG3       -6.7250   -1.5230    4.3361 H         1 ACP         0.2010
     33 H3B1       -6.2840   -4.0860    1.8345 H         1 ACP        -0.0393
     34 H3B2       -5.9929   -5.0738    3.2691 H         1 ACP        -0.0393
     35 H5'1       -1.7614   -3.4427    2.4167 H         1 ACP        -0.0393
     36 H5'2       -0.1870   -3.8723    3.1344 H         1 ACP        -0.0393
     37 H4'         0.8883   -3.6447    0.8783 H         1 ACP        -0.0393
     38 H3'        -0.7368   -1.2359    1.9871 H         1 ACP        -0.0393
     39 HO3'        1.3407   -0.4871    2.3218 H         1 ACP         0.2010
     40 H2'        -0.0343   -0.0280    0.0196 H         1 ACP        -0.0393
     41 HO2'        2.1443   -0.7955    0.0378 H         1 ACP         0.2010
     42 H1'        -0.5175   -2.1046   -1.7826 H         1 ACP        -0.0393
     43 H8         -2.7697   -1.0875    1.5194 H         1 ACP         0.0000
     44 HN61       -6.3171    0.5450   -0.7814 H         1 ACP         0.2048
     45 HN62       -6.8827    0.8341   -2.4090 H         1 ACP         0.2048
     46 H2         -3.3452   -0.6828   -5.0785 H         1 ACP        -0.1292
     47 H47        -5.4089    0.2183   -4.2317 H         1 ACP         0.2048
@<TRIPOS>BOND
     1    1    2 2
     2    1    3 1
     3    1    4 1
     4    1    8 1
     5    4   32 1
     6    5    6 2
     7    5    7 1
     8    5    8 1
     9    5   12 1
    10    8   33 1
    11    8   34 1
    12    9   10 2
    13    9   11 1
    14    9   12 1
    15    9   13 1
    16   13   14 1
    17   14   15 1
    18   14   35 1
    19   14   36 1
    20   15   16 1
    21   15   17 1
    22   15   37 1
    23   16   21 1
    24   17   18 1
    25   17   19 1
    26   17   38 1
    27   18   39 1
    28   19   20 1
    29   19   21 1
    30   19   40 1
    31   20   41 1
    32   21   22 1
    33   21   42 1
    34   22   23 ar
    35   22   31 ar
    36   23   24 ar
    37   23   43 1
    38   24   25 ar
    39   25   26 ar
    40   25   31 ar
    41   26   27 1
    42   26   28 ar
    43   27   44 1
    44   27   45 1
    45   28   29 ar
    46   28   47 1
    47   29   30 ar
    48   29   46 1
    49   30   31 ar
@<TRIPOS>SUBSTRUCTURE
     1 ACP         1 GROUP 0 A     ****
@<TRIPOS>MOLECULE
[[5-(6-amino-1,8-dihydropurine-6,8-diylium-7-id-9-yl)-3,4-dihydroxy-tetrahydrofuran-2-yl]methoxy-oxido-phosphoryl]oxy-[[hydroxy(oxido)phosphoryl]methyl]phosphinate
   47    49     1     0     0
SMALL
USER_CHARGES

@<TRIPOS>ATOM
      1 PG          6.4306   -1.4749    1.2752 P.3       1 ACP        -1.2804
      2 O1G         4.9557   -1.7129    1.0496 O.co2     1 ACP         0.3195
      3 O2G         6.9806   -1.0560    2.6192 O.co2     1 ACP         0.3195
      4 O3G         7.2770   -2.7537    0.7202 O.3       1 ACP         0.0326
      5 PB          6.8723   -0.4823   -1.7899 P.3       1 ACP        -1.2804
      6 O1B         7.6900   -1.7071   -2.1273 O.co2     1 ACP         0.3195
      7 O2B         7.1179    0.8554   -2.4490 O.co2     1 ACP         0.3195
      8 C3B         6.9909   -0.2249    0.0360 C.3       1 ACP         0.8942
      9 PA          4.3690   -1.3831   -3.1048 P.3       1 ACP        -1.1062
     10 O1A         4.8188   -2.7849   -3.4546 O.co2     1 ACP         0.3195
     11 O2A         4.3121   -0.3045   -4.1650 O.co2     1 ACP         0.3195
     12 O3A         5.2839   -0.8420   -1.8649 O.3       1 ACP         0.4672
     13 O5'         2.9202   -1.4821   -2.3524 O.3       1 ACP         0.1618
     14 C5'         2.2816   -0.2918   -1.9206 C.3       1 ACP         0.1504
     15 C4'         2.7248    0.0226   -0.4980 C.3       1 ACP         0.1111
     16 O4'         2.4697    1.4219   -0.2462 O.3       1 ACP        -0.1436
     17 C3'         1.9404   -0.7419    0.5596 C.3       1 ACP         0.1111
     18 O3'         2.7418   -0.8086    1.7389 O.3       1 ACP        -0.2728
     19 C2'         0.7477    0.1630    0.7858 C.3       1 ACP         0.1111
     20 O2'         0.1373   -0.0577    2.0407 O.3       1 ACP        -0.2728
     21 C1'         1.3733    1.5427    0.6747 C.3       1 ACP         0.2693
     22 N9          0.4520    2.5240    0.1767 N.pl3     1 ACP        -0.3222
     23 C8         -0.3054    2.4845   -1.1576 C.ar      1 ACP         0.1640
     24 N7         -1.0755    3.5806   -1.2691 N.2       1 ACP        -0.1640
     25 C5         -0.8043    4.2306   -0.0942 C.ar      1 ACP         0.0820
     26 C6         -1.4324    5.5335    0.2646 C.ar      1 ACP         0.1640
     27 N6         -2.2885    6.1055   -0.5675 N.pl3     1 ACP        -0.4916
     28 N1         -1.0537    6.0229    1.4478 N.pl3     1 ACP        -0.4390
     29 C2         -0.1096    5.3242    2.2908 C.ar      1 ACP         0.5691
     30 N3          0.4468    4.1904    1.9960 N.ar      1 ACP        -0.4283
     31 C4          0.0631    3.6855    0.7877 C.ar      1 ACP         0.2226
     32 HOG3        7.1021   -3.6359    1.1117 H         1 ACP         0.2010
     33 H3B1        8.0472   -0.0331    0.2550 H         1 ACP        -0.0393
     34 H3B2        6.4394    0.6974    0.2501 H         1 ACP        -0.0393
     35 H5'1        2.5581    0.5235   -2.5966 H         1 ACP        -0.0393
     36 H5'2        1.1974   -0.4370   -1.9607 H         1 ACP        -0.0393
     37 H4'         3.8046   -0.1390   -0.4011 H         1 ACP        -0.0393
     38 H3'         1.6787   -1.7627    0.2719 H         1 ACP        -0.0393
     39 HO3'        2.2231   -1.2979    2.3952 H         1 ACP         0.2010
     40 H2'         0.0002   -0.0084   -0.0014 H         1 ACP        -0.0393
     41 HO2'       -0.6132    0.5577    2.1063 H         1 ACP         0.2010
     42 H1'         1.7718    1.9211    1.6015 H         1 ACP        -0.0393
     43 H8         -0.2991    1.7413   -1.9611 H         1 ACP         0.0000
     44 HN61       -2.5167    5.6603   -1.4447 H         1 ACP         0.2048
     45 HN62       -2.7159    6.9882   -0.3270 H         1 ACP         0.2048
     46 H2          0.1059    5.8491    3.2340 H         1 ACP        -0.1292
     47 H47        -1.4532    6.9099    1.7401 H         1 ACP         0.2048
@<TRIPOS>BOND
     1    1    2 2
     2    1    3 1
     3    1    4 1
     4    1    8 1
     5    4   32 1
     6    5    6 2
     7    5    7 1
     8    5    8 1
     9    5   12 1
    10    8   33 1
    11    8   34 1
    12    9   10 2
    13    9   11 1
    14    9   12 1
    15    9   13 1
    16   13   14 1
    17   14   15 1
    18   14   35 1
    19   14   36 1
    20   15   16 1
    21   15   17 1
    22   15   37 1
    23   16   21 1
    24   17   18 1
    25   17   19 1
    26   17   38 1
    27   18   39 1
    28   19   20 1
    29   19   21 1
    30   19   40 1
    31   20   41 1
    32   21   22 1
    33   21   42 1
    34   22   23 ar
    35   22   31 ar
    36   23   24 ar
    37   23   43 1
    38   24   25 ar
    39   25   26 ar
    40   25   31 ar
    41   26   27 1
    42   26   28 ar
    43   27   44 1
    44   27   45 1
    45   28   29 ar
    46   28   47 1
    47   29   30 ar
    48   29   46 1
    49   30   31 ar
@<TRIPOS>SUBSTRUCTURE
     1 ACP         1 GROUP 0 A     ****
@<TRIPOS>MOLECULE
[[5-(6-amino-1,8-dihydropurine-6,8-diylium-7-id-9-yl)-3,4-dihydroxy-tetrahydrofuran-2-yl]methoxy-oxido-phosphoryl]oxy-[[hydroxy(oxido)phosphoryl]methyl]phosphinate
   47    49     1     0     0
SMALL
USER_CHARGES

@<TRIPOS>ATOM
      1 PG         -1.3167    0.7383   -4.8018 P.3       1 ACP        -1.2804
      2 O1G        -0.5095   -0.2005   -3.9357 O.co2     1 ACP         0.3195
      3 O2G        -2.5178    0.2706   -5.5909 O.co2     1 ACP         0.3195
      4 O3G        -1.7202    2.0610   -3.9372 O.3       1 ACP         0.0326
      5 PB          1.2848    2.5738   -5.4636 P.3       1 ACP        -1.2804
      6 O1B         0.7385    3.7340   -4.6649 O.co2     1 ACP         0.3195
      7 O2B         2.1625    2.7754   -6.6775 O.co2     1 ACP         0.3195
      8 C3B        -0.1533    1.5407   -5.9913 C.3       1 ACP         0.8942
      9 PA          3.2331    1.6548   -3.4224 P.3       1 ACP        -1.1062
     10 O1A         2.8120    2.5879   -2.3081 O.co2     1 ACP         0.3195
     11 O2A         4.4890    1.9264   -4.2220 O.co2     1 ACP         0.3195
     12 O3A         1.9831    1.4943   -4.4610 O.3       1 ACP         0.4672
     13 O5'         3.2883    0.1336   -2.8242 O.3       1 ACP         0.1618
     14 C5'         2.2816   -0.2918   -1.9206 C.3       1 ACP         0.1504
     15 C4'         2.7248    0.0226   -0.4980 C.3       1 ACP         0.1111
     16 O4'         2.4697    1.4219   -0.2462 O.3       1 ACP        -0.1436
     17 C3'         1.9404   -0.7419    0.5596 C.3       1 ACP         0.1111
     18 O3'         2.7418   -0.8086    1.7389 O.3       1 ACP        -0.2728
     19 C2'         0.7477    0.1630    0.7858 C.3       1 ACP         0.1111
     20 O2'         0.1373   -0.0577    2.0407 O.3       1 ACP        -0.2728
     21 C1'         1.3733    1.5427    0.6747 C.3       1 ACP         0.2693
     22 N9          0.4520    2.5240    0.1767 N.pl3     1 ACP        -0.3222
     23 C8          0.1798    2.8712   -1.2933 C.ar      1 ACP         0.1640
     24 N7         -0.7494    3.8400   -1.3610 N.2       1 ACP        -0.1640
     25 C5         -1.0173    4.0603   -0.0358 C.ar      1 ACP         0.0820
     26 C6         -2.0105    5.0717    0.4241 C.ar      1 ACP         0.1640
     27 N6         -2.6723    5.7982   -0.4628 N.pl3     1 ACP        -0.4916
     28 N1         -2.1445    5.1522    1.7502 N.pl3     1 ACP        -0.4390
     29 C2         -1.3755    4.3143    2.6426 C.ar      1 ACP         0.5691
     30 N3         -0.5075    3.4292    2.2616 N.ar      1 ACP        -0.4283
     31 C4         -0.3667    3.3425    0.9070 C.ar      1 ACP         0.2226
     32 HOG3       -2.2581    1.9430   -3.1254 H         1 ACP         0.2010
     33 H3B1       -0.7703    2.1740   -6.6384 H         1 ACP        -0.0393
     34 H3B2        0.2593    0.7396   -6.6144 H         1 ACP        -0.0393
     35 H5'1        1.3500    0.2325   -2.1560 H         1 ACP        -0.0393
     36 H5'2        2.1267   -1.3683   -2.0444 H         1 ACP        -0.0393
     37 H4'         3.8046   -0.1390   -0.4011 H         1 ACP        -0.0393
     38 H3'         1.6787   -1.7627    0.2719 H         1 ACP        -0.0393
     39 HO3'        2.2231   -1.2979    2.3952 H         1 ACP         0.2010
     40 H2'         0.0002   -0.0084   -0.0014 H         1 ACP        -0.0393
     41 HO2'        0.8091    0.1203    2.7213 H         1 ACP         0.2010
     42 H1'         1.7718    1.9211    1.6015 H         1 ACP        -0.0393
     43 H8          0.6089    2.4651   -2.2147 H         1 ACP         0.0000
     44 HN61       -2.5055    5.6680   -1.4503 H         1 ACP         0.2048
     45 HN62       -3.3462    6.4841   -0.1542 H         1 ACP         0.2048
     46 H2         -1.5932    4.4937    3.7066 H         1 ACP        -0.1292
     47 H47        -2.8098    5.8270    2.1160 H         1 ACP         0.2048
@<TRIPOS>BOND
     1    1    2 2
     2    1    3 1
     3    1    4 1
     4    1    8 1
     5    4   32 1
     6    5    6 2
     7    5    7 1
     8    5    8 1
     9    5   12 1
    10    8   33 1
    11    8   34 1
    12    9   10 2
    13    9   11 1
    14    9   12 1
    15    9   13 1
    16   13   14 1
    17   14   15 1
    18   14   35 1
    19   14   36 1
    20   15   16 1
    21   15   17 1
    22   15   37 1
    23   16   21 1
    24   17   18 1
    25   17   19 1
    26   17   38 1
    27   18   39 1
    28   19   20 1
    29   19   21 1
    30   19   40 1
    31   20   41 1
    32   21   22 1
    33   21   42 1
    34   22   23 ar
    35   22   31 ar
    36   23   24 ar
    37   23   43 1
    38   24   25 ar
    39   25   26 ar
    40   25   31 ar
    41   26   27 1
    42   26   28 ar
    43   27   44 1
    44   27   45 1
    45   28   29 ar
    46   28   47 1
    47   29   30 ar
    48   29   46 1
    49   30   31 ar
@<TRIPOS>SUBSTRUCTURE
     1 ACP         1 GROUP 0 A     ****
@<TRIPOS>MOLECULE
[[5-(6-amino-1,8-dihydropurine-6,8-diylium-7-id-9-yl)-3,4-dihydroxy-tetrahydrofuran-2-yl]methoxy-oxido-phosphoryl]oxy-[[hydroxy(oxido)phosphoryl]methyl]phosphinate
   47    49     1     0     0
SMALL
USER_CHARGES

@<TRIPOS>ATOM
      1 PG         -2.0769    0.9731   -2.9200 P.3       1 ACP        -1.2804
      2 O1G        -3.2639    1.6774   -3.5347 O.co2     1 ACP         0.3195
      3 O2G        -0.6602    1.2424   -3.3722 O.co2     1 ACP         0.3195
      4 O3G        -2.1573    1.0933   -1.2955 O.3       1 ACP         0.0326
      5 PB         -1.1771   -2.1166   -2.4516 P.3       1 ACP        -1.2804
      6 O1B        -1.7678   -3.4734   -2.7561 O.co2     1 ACP         0.3195
      7 O2B        -0.7716   -1.7112   -1.0532 O.co2     1 ACP         0.3195
      8 C3B        -2.3674   -0.8451   -3.0686 C.3       1 ACP         0.8942
      9 PA          1.5993   -2.3027   -3.4829 P.3       1 ACP        -1.1062
     10 O1A         2.3380   -1.5710   -4.5823 O.co2     1 ACP         0.3195
     11 O2A         1.6167   -3.8146   -3.4164 O.co2     1 ACP         0.3195
     12 O3A         0.0447   -1.8028   -3.4846 O.3       1 ACP         0.4672
     13 O5'         2.0818   -1.6902   -2.0452 O.3       1 ACP         0.1618
     14 C5'         2.2816   -0.2918   -1.9206 C.3       1 ACP         0.1504
     15 C4'         2.7248    0.0226   -0.4980 C.3       1 ACP         0.1111
     16 O4'         2.4697    1.4219   -0.2462 O.3       1 ACP        -0.1436
     17 C3'         1.9404   -0.7419    0.5596 C.3       1 ACP         0.1111
     18 O3'         2.7418   -0.8086    1.7389 O.3       1 ACP        -0.2728
     19 C2'         0.7477    0.1630    0.7858 C.3       1 ACP         0.1111
     20 O2'         0.1373   -0.0577    2.0407 O.3       1 ACP        -0.2728
     21 C1'         1.3733    1.5427    0.6747 C.3       1 ACP         0.2693
     22 N9          0.4520    2.5240    0.1767 N.pl3     1 ACP        -0.3222
     23 C8          0.5793    3.3338   -1.1209 C.ar      1 ACP         0.1640
     24 N7         -0.4807    4.1508   -1.2458 N.2       1 ACP        -0.1640
     25 C5         -1.1921    3.8572   -0.1126 C.ar      1 ACP         0.0820
     26 C6         -2.4855    4.5203    0.2163 C.ar      1 ACP         0.1640
     27 N6         -2.9873    5.4319   -0.6020 N.pl3     1 ACP        -0.4916
     28 N1         -3.0414    4.1119    1.3596 N.pl3     1 ACP        -0.4390
     29 C2         -2.4169    3.1071    2.1904 C.ar      1 ACP         0.5691
     30 N3         -1.2928    2.5191    1.9210 N.ar      1 ACP        -0.4283
     31 C4         -0.7202    2.9326    0.7534 C.ar      1 ACP         0.2226
     32 HOG3       -2.1557    1.9873   -0.8919 H         1 ACP         0.2010
     33 H3B1       -2.5081   -1.0433   -4.1370 H         1 ACP        -0.0393
     34 H3B2       -3.3203   -1.0518   -2.5689 H         1 ACP        -0.0393
     35 H5'1        3.0467    0.0218   -2.6379 H         1 ACP        -0.0393
     36 H5'2        1.3432    0.2220   -2.1518 H         1 ACP        -0.0393
     37 H4'         3.8046   -0.1390   -0.4011 H         1 ACP        -0.0393
     38 H3'         1.6787   -1.7627    0.2719 H         1 ACP        -0.0393
     39 HO3'        2.2231   -1.2979    2.3952 H         1 ACP         0.2010
     40 H2'         0.0002   -0.0084   -0.0014 H         1 ACP        -0.0393
     41 HO2'       -0.1554   -0.9852    2.0577 H         1 ACP         0.2010
     42 H1'         1.7718    1.9211    1.6015 H         1 ACP        -0.0393
     43 H8          1.3565    3.3309   -1.8916 H         1 ACP         0.0000
     44 HN61       -2.4952    5.6785   -1.4487 H         1 ACP         0.2048
     45 HN62       -3.8637    5.8828   -0.3819 H         1 ACP         0.2048
     46 H2         -2.9911    2.8734    3.1000 H         1 ACP        -0.1292
     47 H47        -3.9253    4.5332    1.6302 H         1 ACP         0.2048
@<TRIPOS>BOND
     1    1    2 2
     2    1    3 1
     3    1    4 1
     4    1    8 1
     5    4   32 1
     6    5    6 2
     7    5    7 1
     8    5    8 1
     9    5   12 1
    10    8   33 1
    11    8   34 1
    12    9   10 2
    13    9   11 1
    14    9   12 1
    15    9   13 1
    16   13   14 1
    17   14   15 1
    18   14   35 1
    19   14   36 1
    20   15   16 1
    21   15   17 1
    22   15   37 1
    23   16   21 1
    24   17   18 1
    25   17   19 1
    26   17   38 1
    27   18   39 1
    28   19   20 1
    29   19   21 1
    30   19   40 1
    31   20   41 1
    32   21   22 1
    33   21   42 1
    34   22   23 ar
    35   22   31 ar
    36   23   24 ar
    37   23   43 1
    38   24   25 ar
    39   25   26 ar
    40   25   31 ar
    41   26   27 1
    42   26   28 ar
    43   27   44 1
    44   27   45 1
    45   28   29 ar
    46   28   47 1
    47   29   30 ar
    48   29   46 1
    49   30   31 ar
@<TRIPOS>SUBSTRUCTURE
     1 ACP         1 GROUP 0 A     ****
@<TRIPOS>MOLECULE
[[5-(6-amino-1,8-dihydropurine-6,8-diylium-7-id-9-yl)-3,4-dihydroxy-tetrahydrofuran-2-yl]methoxy-oxido-phosphoryl]oxy-[[hydroxy(oxido)phosphoryl]methyl]phosphinate
   47    49     1     0     0
SMALL
USER_CHARGES

@<TRIPOS>ATOM
      1 PG          1.0063   -4.9557   -2.7319 P.3       1 ACP        -1.2804
      2 O1G         1.4373   -4.6539   -1.3156 O.co2     1 ACP         0.3195
      3 O2G         1.5661   -4.2063   -3.9191 O.co2     1 ACP         0.3195
      4 O3G         1.1208   -6.5598   -3.0030 O.3       1 ACP         0.0326
      5 PB         -1.9759   -5.8323   -1.7763 P.3       1 ACP        -1.2804
      6 O1B        -1.7263   -7.2783   -2.1361 O.co2     1 ACP         0.3195
      7 O2B        -3.3483   -5.2060   -1.8677 O.co2     1 ACP         0.3195
      8 C3B        -0.8333   -4.8032   -2.8008 C.3       1 ACP         0.8942
      9 PA         -1.6235   -6.1545    1.1527 P.3       1 ACP        -1.1062
     10 O1A        -1.1627   -7.5958    1.1424 O.co2     1 ACP         0.3195
     11 O2A        -3.0389   -5.8005    1.5548 O.co2     1 ACP         0.3195
     12 O3A        -1.3259   -5.5072   -0.3169 O.3       1 ACP         0.4672
     13 O5'        -0.5697   -5.2855    2.0524 O.3       1 ACP         0.1618
     14 C5'        -0.7840   -3.8935    2.2172 C.3       1 ACP         0.1504
     15 C4'        -0.0724   -3.1466    1.1027 C.3       1 ACP         0.1111
     16 O4'        -0.8674   -3.1929   -0.0945 O.3       1 ACP        -0.1436
     17 C3'         0.1338   -1.6715    1.4027 C.3       1 ACP         0.1111
     18 O3'         1.2893   -1.4445    2.1808 O.3       1 ACP        -0.2728
     19 C2'         0.2158   -1.0724    0.0128 C.3       1 ACP         0.1111
     20 O2'         1.5141   -1.2448   -0.5513 O.3       1 ACP        -0.2728
     21 C1'        -0.7897   -1.9176   -0.7583 C.3       1 ACP         0.2693
     22 N9         -2.1040   -1.3333   -0.7704 N.pl3     1 ACP        -0.3222
     23 C8         -3.2124   -1.5345    0.2719 C.ar      1 ACP         0.1640
     24 N7         -4.2964   -0.8234   -0.0828 N.2       1 ACP        -0.1640
     25 C5         -3.8754   -0.2386   -1.2478 C.ar      1 ACP         0.0820
     26 C6         -4.7432    0.6719   -2.0470 C.ar      1 ACP         0.1640
     27 N6         -5.9725    0.9415   -1.6366 N.pl3     1 ACP        -0.4916
     28 N1         -4.1703    1.1517   -3.1536 N.pl3     1 ACP        -0.4390
     29 C2         -2.8174    0.7994   -3.5215 C.ar      1 ACP         0.5691
     30 N3         -2.0475    0.0097   -2.8393 N.ar      1 ACP        -0.4283
     31 C4         -2.6278   -0.4836   -1.7071 C.ar      1 ACP         0.2226
     32 HOG3        1.9984   -6.9883   -2.9107 H         1 ACP         0.2010
     33 H3B1       -1.1129   -4.9752   -3.8461 H         1 ACP        -0.0393
     34 H3B2       -1.0700   -3.7595   -2.5659 H         1 ACP        -0.0393
     35 H5'1       -1.8599   -3.6946    2.1849 H         1 ACP        -0.0393
     36 H5'2       -0.3934   -3.5881    3.1930 H         1 ACP        -0.0393
     37 H4'         0.8883   -3.6447    0.8783 H         1 ACP        -0.0393
     38 H3'        -0.7368   -1.2359    1.9871 H         1 ACP        -0.0393
     39 HO3'        1.3407   -0.4871    2.3218 H         1 ACP         0.2010
     40 H2'        -0.0343   -0.0280    0.0196 H         1 ACP        -0.0393
     41 HO2'        2.1443   -0.7955    0.0378 H         1 ACP         0.2010
     42 H1'        -0.5175   -2.1046   -1.7826 H         1 ACP        -0.0393
     43 H8         -3.2310   -2.1319    1.1889 H         1 ACP         0.0000
     44 HN61       -6.3230    0.5316   -0.7829 H         1 ACP         0.2048
     45 HN62       -6.5628    1.5584   -2.1760 H         1 ACP         0.2048
     46 H2         -2.4822    1.2710   -4.4579 H         1 ACP        -0.1292
     47 H47        -4.7200    1.7780   -3.7346 H         1 ACP         0.2048
@<TRIPOS>BOND
     1    1    2 2
     2    1    3 1
     3    1    4 1
     4    1    8 1
     5    4   32 1
     6    5    6 2
     7    5    7 1
     8    5    8 1
     9    5   12 1
    10    8   33 1
    11    8   34 1
    12    9   10 2
    13    9   11 1
    14    9   12 1
    15    9   13 1
    16   13   14 1
    17   14   15 1
    18   14   35 1
    19   14   36 1
    20   15   16 1
    21   15   17 1
    22   15   37 1
    23   16   21 1
    24   17   18 1
    25   17   19 1
    26   17   38 1
    27   18   39 1
    28   19   20 1
    29   19   21 1
    30   19   40 1
    31   20   41 1
    32   21   22 1
    33   21   42 1
    34   22   23 ar
    35   22   31 ar
    36   23   24 ar
    37   23   43 1
    38   24   25 ar
    39   25   26 ar
    40   25   31 ar
    41   26   27 1
    42   26   28 ar
    43   27   44 1
    44   27   45 1
    45   28   29 ar
    46   28   47 1
    47   29   30 ar
    48   29   46 1
    49   30   31 ar
@<TRIPOS>SUBSTRUCTURE
     1 ACP         1 GROUP 0 A     ****
@<TRIPOS>MOLECULE
[[5-(6-amino-1,8-dihydropurine-6,8-diylium-7-id-9-yl)-3,4-dihydroxy-tetrahydrofuran-2-yl]methoxy-oxido-phosphoryl]oxy-[[hydroxy(oxido)phosphoryl]methyl]phosphinate
   47    49     1     0     0
SMALL
USER_CHARGES

@<TRIPOS>ATOM
      1 PG          3.3625   -3.8162   -0.8785 P.3       1 ACP        -1.2804
      2 O1G         4.1096   -2.5136   -1.0457 O.co2     1 ACP         0.3195
      3 O2G         1.8674   -3.9160   -1.0756 O.co2     1 ACP         0.3195
      4 O3G         4.1010   -4.9801   -1.7502 O.3       1 ACP         0.0326
      5 PB          3.0475   -6.0458    1.4678 P.3       1 ACP        -1.2804
      6 O1B         3.5873   -6.2274    2.8672 O.co2     1 ACP         0.3195
      7 O2B         3.2248   -7.0955    0.3948 O.co2     1 ACP         0.3195
      8 C3B         3.7411   -4.4649    0.8092 C.3       1 ACP         0.8942
      9 PA          0.1815   -6.3463    2.1767 P.3       1 ACP        -1.1062
     10 O1A         0.3500   -6.3925    3.6797 O.co2     1 ACP         0.3195
     11 O2A        -0.0772   -7.6133    1.3905 O.co2     1 ACP         0.3195
     12 O3A         1.4820   -5.5956    1.5347 O.3       1 ACP         0.4672
     13 O5'        -0.9728   -5.2427    1.8237 O.3       1 ACP         0.1618
     14 C5'        -0.7840   -3.8935    2.2172 C.3       1 ACP         0.1504
     15 C4'        -0.0724   -3.1466    1.1027 C.3       1 ACP         0.1111
     16 O4'        -0.8674   -3.1929   -0.0945 O.3       1 ACP        -0.1436
     17 C3'         0.1338   -1.6715    1.4027 C.3       1 ACP         0.1111
     18 O3'         1.2893   -1.4445    2.1808 O.3       1 ACP        -0.2728
     19 C2'         0.2158   -1.0724    0.0128 C.3       1 ACP         0.1111
     20 O2'         1.5141   -1.2448   -0.5513 O.3       1 ACP        -0.2728
     21 C1'        -0.7897   -1.9176   -0.7583 C.3       1 ACP         0.2693
     22 N9         -2.1040   -1.3333   -0.7704 N.pl3     1 ACP        -0.3222
     23 C8         -3.2124   -1.5345    0.2719 C.ar      1 ACP         0.1640
     24 N7         -4.2964   -0.8234   -0.0828 N.2       1 ACP        -0.1640
     25 C5         -3.8754   -0.2386   -1.2478 C.ar      1 ACP         0.0820
     26 C6         -4.7432    0.6719   -2.0470 C.ar      1 ACP         0.1640
     27 N6         -5.9725    0.9415   -1.6366 N.pl3     1 ACP        -0.4916
     28 N1         -4.1703    1.1517   -3.1536 N.pl3     1 ACP        -0.4390
     29 C2         -2.8174    0.7994   -3.5215 C.ar      1 ACP         0.5691
     30 N3         -2.0475    0.0097   -2.8393 N.ar      1 ACP        -0.4283
     31 C4         -2.6278   -0.4836   -1.7071 C.ar      1 ACP         0.2226
     32 HOG3        4.1802   -4.8587   -2.7203 H         1 ACP         0.2010
     33 H3B1        3.4420   -3.6781    1.5106 H         1 ACP        -0.0393
     34 H3B2        4.8308   -4.5613    0.8704 H         1 ACP        -0.0393
     35 H5'1       -1.7614   -3.4427    2.4167 H         1 ACP        -0.0393
     36 H5'2       -0.1870   -3.8723    3.1344 H         1 ACP        -0.0393
     37 H4'         0.8883   -3.6447    0.8783 H         1 ACP        -0.0393
     38 H3'        -0.7368   -1.2359    1.9871 H         1 ACP        -0.0393
     39 HO3'        1.3407   -0.4871    2.3218 H         1 ACP         0.2010
     40 H2'        -0.0343   -0.0280    0.0196 H         1 ACP        -0.0393
     41 HO2'        1.4978   -0.8409   -1.4361 H         1 ACP         0.2010
     42 H1'        -0.5175   -2.1046   -1.7826 H         1 ACP        -0.0393
     43 H8         -3.2310   -2.1319    1.1889 H         1 ACP         0.0000
     44 HN61       -6.3230    0.5316   -0.7829 H         1 ACP         0.2048
     45 HN62       -6.5628    1.5584   -2.1760 H         1 ACP         0.2048
     46 H2         -2.4822    1.2710   -4.4579 H         1 ACP        -0.1292
     47 H47        -4.7200    1.7780   -3.7346 H         1 ACP         0.2048
@<TRIPOS>BOND
     1    1    2 2
     2    1    3 1
     3    1    4 1
     4    1    8 1
     5    4   32 1
     6    5    6 2
     7    5    7 1
     8    5    8 1
     9    5   12 1
    10    8   33 1
    11    8   34 1
    12    9   10 2
    13    9   11 1
    14    9   12 1
    15    9   13 1
    16   13   14 1
    17   14   15 1
    18   14   35 1
    19   14   36 1
    20   15   16 1
    21   15   17 1
    22   15   37 1
    23   16   21 1
    24   17   18 1
    25   17   19 1
    26   17   38 1
    27   18   39 1
    28   19   20 1
    29   19   21 1
    30   19   40 1
    31   20   41 1
    32   21   22 1
    33   21   42 1
    34   22   23 ar
    35   22   31 ar
    36   23   24 ar
    37   23   43 1
    38   24   25 ar
    39   25   26 ar
    40   25   31 ar
    41   26   27 1
    42   26   28 ar
    43   27   44 1
    44   27   45 1
    45   28   29 ar
    46   28   47 1
    47   29   30 ar
    48   29   46 1
    49   30   31 ar
@<TRIPOS>SUBSTRUCTURE
     1 ACP         1 GROUP 0 A     ****
@<TRIPOS>MOLECULE
[[5-(6-amino-1,8-dihydropurine-6,8-diylium-7-id-9-yl)-3,4-dihydroxy-tetrahydrofuran-2-yl]methoxy-oxido-phosphoryl]oxy-[[hydroxy(oxido)phosphoryl]methyl]phosphinate
   47    49     1     0     0
SMALL
USER_CHARGES

@<TRIPOS>ATOM
      1 PG          6.0262   -0.8990    1.5996 P.3       1 ACP        -1.2804
      2 O1G         5.6347   -1.3014    3.0023 O.co2     1 ACP         0.3195
      3 O2G         5.3868    0.2734    0.8920 O.co2     1 ACP         0.3195
      4 O3G         7.6491   -0.7660    1.5071 O.3       1 ACP         0.0326
      5 PB          6.1772   -2.3683   -1.2976 P.3       1 ACP        -1.2804
      6 O1B         5.8848   -3.7538   -1.8245 O.co2     1 ACP         0.3195
      7 O2B         7.5218   -1.7039   -1.4841 O.co2     1 ACP         0.3195
      8 C3B         5.8168   -2.3793    0.5146 C.3       1 ACP         0.8942
      9 PA          4.4771   -0.9086   -3.2433 P.3       1 ACP        -1.1062
     10 O1A         3.8411   -2.1148   -3.8993 O.co2     1 ACP         0.3195
     11 O2A         5.5887   -0.1507   -3.9364 O.co2     1 ACP         0.3195
     12 O3A         4.9956   -1.3431   -1.7570 O.3       1 ACP         0.4672
     13 O5'         3.2883    0.1336   -2.8242 O.3       1 ACP         0.1618
     14 C5'         2.2816   -0.2918   -1.9206 C.3       1 ACP         0.1504
     15 C4'         2.7248    0.0226   -0.4980 C.3       1 ACP         0.1111
     16 O4'         2.4697    1.4219   -0.2462 O.3       1 ACP        -0.1436
     17 C3'         1.9404   -0.7419    0.5596 C.3       1 ACP         0.1111
     18 O3'         2.7418   -0.8086    1.7389 O.3       1 ACP        -0.2728
     19 C2'         0.7477    0.1630    0.7858 C.3       1 ACP         0.1111
     20 O2'         0.1373   -0.0577    2.0407 O.3       1 ACP        -0.2728
     21 C1'         1.3733    1.5427    0.6747 C.3       1 ACP         0.2693
     22 N9          0.4520    2.5240    0.1767 N.pl3     1 ACP        -0.3222
     23 C8         -0.7463    2.2774   -0.7501 C.ar      1 ACP         0.1640
     24 N7         -1.3714    3.4419   -0.9948 N.2       1 ACP        -0.1640
     25 C5         -0.6104    4.3223   -0.2723 C.ar      1 ACP         0.0820
     26 C6         -0.9062    5.7820   -0.2194 C.ar      1 ACP         0.1640
     27 N6         -1.9385    6.2713   -0.8881 N.pl3     1 ACP        -0.4916
     28 N1         -0.0613    6.4906    0.5336 N.pl3     1 ACP        -0.4390
     29 C2          1.0416    5.8662    1.2291 C.ar      1 ACP         0.5691
     30 N3          1.3146    4.5989    1.1954 N.ar      1 ACP        -0.4283
     31 C4          0.4541    3.8697    0.4273 C.ar      1 ACP         0.2226
     32 HOG3        8.0992   -0.1174    2.0894 H         1 ACP         0.2010
     33 H3B1        4.7711   -2.6883    0.6218 H         1 ACP        -0.0393
     34 H3B2        6.4384   -3.1728    0.9441 H         1 ACP        -0.0393
     35 H5'1        1.3500    0.2325   -2.1560 H         1 ACP        -0.0393
     36 H5'2        2.1267   -1.3683   -2.0444 H         1 ACP        -0.0393
     37 H4'         3.8046   -0.1390   -0.4011 H         1 ACP        -0.0393
     38 H3'         1.6787   -1.7627    0.2719 H         1 ACP        -0.0393
     39 HO3'        2.2231   -1.2979    2.3952 H         1 ACP         0.2010
     40 H2'         0.0002   -0.0084   -0.0014 H         1 ACP        -0.0393
     41 HO2'       -0.1554   -0.9852    2.0577 H         1 ACP         0.2010
     42 H1'         1.7718    1.9211    1.6015 H         1 ACP        -0.0393
     43 H8         -1.1244    1.3534   -1.1987 H         1 ACP         0.0000
     44 HN61       -2.5259    5.6573   -1.4336 H         1 ACP         0.2048
     45 HN62       -2.1416    7.2600   -0.8539 H         1 ACP         0.2048
     46 H2          1.6509    6.5764    1.8088 H         1 ACP        -0.1292
     47 H47        -0.2190    7.4917    0.6033 H         1 ACP         0.2048
@<TRIPOS>BOND
     1    1    2 2
     2    1    3 1
     3    1    4 1
     4    1    8 1
     5    4   32 1
     6    5    6 2
     7    5    7 1
     8    5    8 1
     9    5   12 1
    10    8   33 1
    11    8   34 1
    12    9   10 2
    13    9   11 1
    14    9   12 1
    15    9   13 1
    16   13   14 1
    17   14   15 1
    18   14   35 1
    19   14   36 1
    20   15   16 1
    21   15   17 1
    22   15   37 1
    23   16   21 1
    24   17   18 1
    25   17   19 1
    26   17   38 1
    27   18   39 1
    28   19   20 1
    29   19   21 1
    30   19   40 1
    31   20   41 1
    32   21   22 1
    33   21   42 1
    34   22   23 ar
    35   22   31 ar
    36   23   24 ar
    37   23   43 1
    38   24   25 ar
    39   25   26 ar
    40   25   31 ar
    41   26   27 1
    42   26   28 ar
    43   27   44 1
    44   27   45 1
    45   28   29 ar
    46   28   47 1
    47   29   30 ar
    48   29   46 1
    49   30   31 ar
@<TRIPOS>SUBSTRUCTURE
     1 ACP         1 GROUP 0 A     ****
@<TRIPOS>MOLECULE
[[5-(6-amino-1,8-dihydropurine-6,8-diylium-7-id-9-yl)-3,4-dihydroxy-tetrahydrofuran-2-yl]methoxy-oxido-phosphoryl]oxy-[[hydroxy(oxido)phosphoryl]methyl]phosphinate
   47    49     1     0     0
SMALL
USER_CHARGES

@<TRIPOS>ATOM
      1 PG          6.0315   -2.7098   -0.3707 P.3       1 ACP        -1.2804
      2 O1G         5.6429   -4.0758   -0.8863 O.co2     1 ACP         0.3195
      3 O2G         5.0018   -1.6912    0.0610 O.co2     1 ACP         0.3195
      4 O3G         7.1547   -2.8720    0.8005 O.3       1 ACP         0.0326
      5 PB          6.5242   -1.5716   -3.3769 P.3       1 ACP        -1.2804
      6 O1B         6.1555   -2.8980   -3.9993 O.co2     1 ACP         0.3195
      7 O2B         7.5323   -0.6393   -4.0085 O.co2     1 ACP         0.3195
      8 C3B         7.0947   -1.9104   -1.6524 C.3       1 ACP         0.8942
      9 PA          3.9534   -0.2075   -3.9573 P.3       1 ACP        -1.1062
     10 O1A         3.2055   -1.4082   -4.4944 O.co2     1 ACP         0.3195
     11 O2A         4.5033    0.8426   -4.8984 O.co2     1 ACP         0.3195
     12 O3A         5.1710   -0.7403   -3.0083 O.3       1 ACP         0.4672
     13 O5'         3.0198    0.5138   -2.8245 O.3       1 ACP         0.1618
     14 C5'         2.2816   -0.2918   -1.9206 C.3       1 ACP         0.1504
     15 C4'         2.7248    0.0226   -0.4980 C.3       1 ACP         0.1111
     16 O4'         2.4697    1.4219   -0.2462 O.3       1 ACP        -0.1436
     17 C3'         1.9404   -0.7419    0.5596 C.3       1 ACP         0.1111
     18 O3'         2.7418   -0.8086    1.7389 O.3       1 ACP        -0.2728
     19 C2'         0.7477    0.1630    0.7858 C.3       1 ACP         0.1111
     20 O2'         0.1373   -0.0577    2.0407 O.3       1 ACP        -0.2728
     21 C1'         1.3733    1.5427    0.6747 C.3       1 ACP         0.2693
     22 N9          0.4520    2.5240    0.1767 N.pl3     1 ACP        -0.3222
     23 C8         -0.7463    2.2774   -0.7501 C.ar      1 ACP         0.1640
     24 N7         -1.3714    3.4419   -0.9948 N.2       1 ACP        -0.1640
     25 C5         -0.6104    4.3223   -0.2723 C.ar      1 ACP         0.0820
     26 C6         -0.9062    5.7820   -0.2194 C.ar      1 ACP         0.1640
     27 N6         -1.9385    6.2713   -0.8881 N.pl3     1 ACP        -0.4916
     28 N1         -0.0613    6.4906    0.5336 N.pl3     1 ACP        -0.4390
     29 C2          1.0416    5.8662    1.2291 C.ar      1 ACP         0.5691
     30 N3          1.3146    4.5989    1.1954 N.ar      1 ACP        -0.4283
     31 C4          0.4541    3.8697    0.4273 C.ar      1 ACP         0.2226
     32 HOG3        6.9230   -3.3868    1.6027 H         1 ACP         0.2010
     33 H3B1        7.9892   -2.5372   -1.7383 H         1 ACP        -0.0393
     34 H3B2        7.4096   -0.9451   -1.2405 H         1 ACP        -0.0393
     35 H5'1        1.2153   -0.0781   -2.0454 H         1 ACP        -0.0393
     36 H5'2        2.4645   -1.3454   -2.1547 H         1 ACP        -0.0393
     37 H4'         3.8046   -0.1390   -0.4011 H         1 ACP        -0.0393
     38 H3'         1.6787   -1.7627    0.2719 H         1 ACP        -0.0393
     39 HO3'        2.2231   -1.2979    2.3952 H         1 ACP         0.2010
     40 H2'         0.0002   -0.0084   -0.0014 H         1 ACP        -0.0393
     41 HO2'       -0.1554   -0.9852    2.0577 H         1 ACP         0.2010
     42 H1'         1.7718    1.9211    1.6015 H         1 ACP        -0.0393
     43 H8         -1.1244    1.3534   -1.1987 H         1 ACP         0.0000
     44 HN61       -2.5259    5.6573   -1.4336 H         1 ACP         0.2048
     45 HN62       -2.1416    7.2600   -0.8539 H         1 ACP         0.2048
     46 H2          1.6509    6.5764    1.8088 H         1 ACP        -0.1292
     47 H47        -0.2190    7.4917    0.6033 H         1 ACP         0.2048
@<TRIPOS>BOND
     1    1    2 2
     2    1    3 1
     3    1    4 1
     4    1    8 1
     5    4   32 1
     6    5    6 2
     7    5    7 1
     8    5    8 1
     9    5   12 1
    10    8   33 1
    11    8   34 1
    12    9   10 2
    13    9   11 1
    14    9   12 1
    15    9   13 1
    16   13   14 1
    17   14   15 1
    18   14   35 1
    19   14   36 1
    20   15   16 1
    21   15   17 1
    22   15   37 1
    23   16   21 1
    24   17   18 1
    25   17   19 1
    26   17   38 1
    27   18   39 1
    28   19   20 1
    29   19   21 1
    30   19   40 1
    31   20   41 1
    32   21   22 1
    33   21   42 1
    34   22   23 ar
    35   22   31 ar
    36   23   24 ar
    37   23   43 1
    38   24   25 ar
    39   25   26 ar
    40   25   31 ar
    41   26   27 1
    42   26   28 ar
    43   27   44 1
    44   27   45 1
    45   28   29 ar
    46   28   47 1
    47   29   30 ar
    48   29   46 1
    49   30   31 ar
@<TRIPOS>SUBSTRUCTURE
     1 ACP         1 GROUP 0 A     ****
@<TRIPOS>MOLECULE
[[5-(6-amino-1,8-dihydropurine-6,8-diylium-7-id-9-yl)-3,4-dihydroxy-tetrahydrofuran-2-yl]methoxy-oxido-phosphoryl]oxy-[[hydroxy(oxido)phosphoryl]methyl]phosphinate
   47    49     1     0     0
SMALL
USER_CHARGES

@<TRIPOS>ATOM
      1 PG          5.6899    3.0776    0.4997 P.3       1 ACP        -1.2804
      2 O1G         6.8843    3.6190   -0.2506 O.co2     1 ACP         0.3195
      3 O2G         5.3151    1.6138    0.4649 O.co2     1 ACP         0.3195
      4 O3G         5.7487    3.5832    2.0492 O.3       1 ACP         0.0326
      5 PB          3.6218    4.1030   -1.7908 P.3       1 ACP        -1.2804
      6 O1B         4.7426    4.6830   -2.6215 O.co2     1 ACP         0.3195
      7 O2B         2.2352    4.7044   -1.7787 O.co2     1 ACP         0.3195
      8 C3B         4.2081    4.0395   -0.0397 C.3       1 ACP         0.8942
      9 PA          3.2331    1.6548   -3.4224 P.3       1 ACP        -1.1062
     10 O1A         4.4130    1.8426   -4.3510 O.co2     1 ACP         0.3195
     11 O2A         1.8268    1.9598   -3.8913 O.co2     1 ACP         0.3195
     12 O3A         3.5157    2.4972   -2.0522 O.3       1 ACP         0.4672
     13 O5'         3.2883    0.1336   -2.8242 O.3       1 ACP         0.1618
     14 C5'         2.2816   -0.2918   -1.9206 C.3       1 ACP         0.1504
     15 C4'         2.7248    0.0226   -0.4980 C.3       1 ACP         0.1111
     16 O4'         2.4697    1.4219   -0.2462 O.3       1 ACP        -0.1436
     17 C3'         1.9404   -0.7419    0.5596 C.3       1 ACP         0.1111
     18 O3'         2.7418   -0.8086    1.7389 O.3       1 ACP        -0.2728
     19 C2'         0.7477    0.1630    0.7858 C.3       1 ACP         0.1111
     20 O2'         0.1373   -0.0577    2.0407 O.3       1 ACP        -0.2728
     21 C1'         1.3733    1.5427    0.6747 C.3       1 ACP         0.2693
     22 N9          0.4520    2.5240    0.1767 N.pl3     1 ACP        -0.3222
     23 C8         -0.7463    2.2774   -0.7501 C.ar      1 ACP         0.1640
     24 N7         -1.3714    3.4419   -0.9948 N.2       1 ACP        -0.1640
     25 C5         -0.6104    4.3223   -0.2723 C.ar      1 ACP         0.0820
     26 C6         -0.9062    5.7820   -0.2194 C.ar      1 ACP         0.1640
     27 N6         -1.9385    6.2713   -0.8881 N.pl3     1 ACP        -0.4916
     28 N1         -0.0613    6.4906    0.5336 N.pl3     1 ACP        -0.4390
     29 C2          1.0416    5.8662    1.2291 C.ar      1 ACP         0.5691
     30 N3          1.3146    4.5989    1.1954 N.ar      1 ACP        -0.4283
     31 C4          0.4541    3.8697    0.4273 C.ar      1 ACP         0.2226
     32 HOG3        6.5237    3.3304    2.5946 H         1 ACP         0.2010
     33 H3B1        4.3922    5.0760    0.2643 H         1 ACP        -0.0393
     34 H3B2        3.3627    3.6702    0.5514 H         1 ACP        -0.0393
     35 H5'1        1.3500    0.2325   -2.1560 H         1 ACP        -0.0393
     36 H5'2        2.1267   -1.3683   -2.0444 H         1 ACP        -0.0393
     37 H4'         3.8046   -0.1390   -0.4011 H         1 ACP        -0.0393
     38 H3'         1.6787   -1.7627    0.2719 H         1 ACP        -0.0393
     39 HO3'        3.5553   -1.2733    1.4913 H         1 ACP         0.2010
     40 H2'         0.0002   -0.0084   -0.0014 H         1 ACP        -0.0393
     41 HO2'       -0.1554   -0.9852    2.0577 H         1 ACP         0.2010
     42 H1'         1.7718    1.9211    1.6015 H         1 ACP        -0.0393
     43 H8         -1.1244    1.3534   -1.1987 H         1 ACP         0.0000
     44 HN61       -2.5259    5.6573   -1.4336 H         1 ACP         0.2048
     45 HN62       -2.1416    7.2600   -0.8539 H         1 ACP         0.2048
     46 H2          1.6509    6.5764    1.8088 H         1 ACP        -0.1292
     47 H47        -0.2190    7.4917    0.6033 H         1 ACP         0.2048
@<TRIPOS>BOND
     1    1    2 2
     2    1    3 1
     3    1    4 1
     4    1    8 1
     5    4   32 1
     6    5    6 2
     7    5    7 1
     8    5    8 1
     9    5   12 1
    10    8   33 1
    11    8   34 1
    12    9   10 2
    13    9   11 1
    14    9   12 1
    15    9   13 1
    16   13   14 1
    17   14   15 1
    18   14   35 1
    19   14   36 1
    20   15   16 1
    21   15   17 1
    22   15   37 1
    23   16   21 1
    24   17   18 1
    25   17   19 1
    26   17   38 1
    27   18   39 1
    28   19   20 1
    29   19   21 1
    30   19   40 1
    31   20   41 1
    32   21   22 1
    33   21   42 1
    34   22   23 ar
    35   22   31 ar
    36   23   24 ar
    37   23   43 1
    38   24   25 ar
    39   25   26 ar
    40   25   31 ar
    41   26   27 1
    42   26   28 ar
    43   27   44 1
    44   27   45 1
    45   28   29 ar
    46   28   47 1
    47   29   30 ar
    48   29   46 1
    49   30   31 ar
@<TRIPOS>SUBSTRUCTURE
     1 ACP         1 GROUP 0 A     ****
@<TRIPOS>MOLECULE
[[5-(6-amino-1,8-dihydropurine-6,8-diylium-7-id-9-yl)-3,4-dihydroxy-tetrahydrofuran-2-yl]methoxy-oxido-phosphoryl]oxy-[[hydroxy(oxido)phosphoryl]methyl]phosphinate
   47    49     1     0     0
SMALL
USER_CHARGES

@<TRIPOS>ATOM
      1 PG         -4.4948   -7.1882    5.2205 P.3       1 ACP        -1.2804
      2 O1G        -4.8861   -6.8687    6.6444 O.co2     1 ACP         0.3195
      3 O2G        -3.0529   -7.3662    4.8041 O.co2     1 ACP         0.3195
      4 O3G        -5.3707   -8.4574    4.6896 O.3       1 ACP         0.0326
      5 PB         -5.0140   -5.8578    2.2989 P.3       1 ACP        -1.2804
      6 O1B        -5.7538   -4.6482    1.7770 O.co2     1 ACP         0.3195
      7 O2B        -5.2969   -7.2537    1.7931 O.co2     1 ACP         0.3195
      8 C3B        -5.2259   -5.8853    4.1342 C.3       1 ACP         0.8942
      9 PA         -2.3399   -5.6583    1.0277 P.3       1 ACP        -1.1062
     10 O1A        -2.6676   -4.5585    0.0414 O.co2     1 ACP         0.3195
     11 O2A        -2.2380   -7.0978    0.5716 O.co2     1 ACP         0.3195
     12 O3A        -3.4078   -5.5806    2.2608 O.3       1 ACP         0.4672
     13 O5'        -0.9728   -5.2427    1.8237 O.3       1 ACP         0.1618
     14 C5'        -0.7840   -3.8935    2.2172 C.3       1 ACP         0.1504
     15 C4'        -0.0724   -3.1466    1.1027 C.3       1 ACP         0.1111
     16 O4'        -0.8674   -3.1929   -0.0945 O.3       1 ACP        -0.1436
     17 C3'         0.1338   -1.6715    1.4027 C.3       1 ACP         0.1111
     18 O3'         1.2893   -1.4445    2.1808 O.3       1 ACP        -0.2728
     19 C2'         0.2158   -1.0724    0.0128 C.3       1 ACP         0.1111
     20 O2'         1.5141   -1.2448   -0.5513 O.3       1 ACP        -0.2728
     21 C1'        -0.7897   -1.9176   -0.7583 C.3       1 ACP         0.2693
     22 N9         -2.1040   -1.3333   -0.7704 N.pl3     1 ACP        -0.3222
     23 C8         -3.2124   -1.5345    0.2719 C.ar      1 ACP         0.1640
     24 N7         -4.2964   -0.8234   -0.0828 N.2       1 ACP        -0.1640
     25 C5         -3.8754   -0.2386   -1.2478 C.ar      1 ACP         0.0820
     26 C6         -4.7432    0.6719   -2.0470 C.ar      1 ACP         0.1640
     27 N6         -5.9725    0.9415   -1.6366 N.pl3     1 ACP        -0.4916
     28 N1         -4.1703    1.1517   -3.1536 N.pl3     1 ACP        -0.4390
     29 C2         -2.8174    0.7994   -3.5215 C.ar      1 ACP         0.5691
     30 N3         -2.0475    0.0097   -2.8393 N.ar      1 ACP        -0.4283
     31 C4         -2.6278   -0.4836   -1.7071 C.ar      1 ACP         0.2226
     32 HOG3       -5.2958   -9.3104    5.1681 H         1 ACP         0.2010
     33 H3B1       -4.8408   -4.9293    4.5060 H         1 ACP        -0.0393
     34 H3B2       -6.3063   -5.8960    4.3161 H         1 ACP        -0.0393
     35 H5'1       -1.7614   -3.4427    2.4167 H         1 ACP        -0.0393
     36 H5'2       -0.1870   -3.8723    3.1344 H         1 ACP        -0.0393
     37 H4'         0.8883   -3.6447    0.8783 H         1 ACP        -0.0393
     38 H3'        -0.7368   -1.2359    1.9871 H         1 ACP        -0.0393
     39 HO3'        1.3407   -0.4871    2.3218 H         1 ACP         0.2010
     40 H2'        -0.0343   -0.0280    0.0196 H         1 ACP        -0.0393
     41 HO2'        2.1443   -0.7955    0.0378 H         1 ACP         0.2010
     42 H1'        -0.5175   -2.1046   -1.7826 H         1 ACP        -0.0393
     43 H8         -3.2310   -2.1319    1.1889 H         1 ACP         0.0000
     44 HN61       -6.3230    0.5316   -0.7829 H         1 ACP         0.2048
     45 HN62       -6.5628    1.5584   -2.1760 H         1 ACP         0.2048
     46 H2         -2.4822    1.2710   -4.4579 H         1 ACP        -0.1292
     47 H47        -4.7200    1.7780   -3.7346 H         1 ACP         0.2048
@<TRIPOS>BOND
     1    1    2 2
     2    1    3 1
     3    1    4 1
     4    1    8 1
     5    4   32 1
     6    5    6 2
     7    5    7 1
     8    5    8 1
     9    5   12 1
    10    8   33 1
    11    8   34 1
    12    9   10 2
    13    9   11 1
    14    9   12 1
    15    9   13 1
    16   13   14 1
    17   14   15 1
    18   14   35 1
    19   14   36 1
    20   15   16 1
    21   15   17 1
    22   15   37 1
    23   16   21 1
    24   17   18 1
    25   17   19 1
    26   17   38 1
    27   18   39 1
    28   19   20 1
    29   19   21 1
    30   19   40 1
    31   20   41 1
    32   21   22 1
    33   21   42 1
    34   22   23 ar
    35   22   31 ar
    36   23   24 ar
    37   23   43 1
    38   24   25 ar
    39   25   26 ar
    40   25   31 ar
    41   26   27 1
    42   26   28 ar
    43   27   44 1
    44   27   45 1
    45   28   29 ar
    46   28   47 1
    47   29   30 ar
    48   29   46 1
    49   30   31 ar
@<TRIPOS>SUBSTRUCTURE
     1 ACP         1 GROUP 0 A     ****
@<TRIPOS>MOLECULE
[[5-(6-amino-1,8-dihydropurine-6,8-diylium-7-id-9-yl)-3,4-dihydroxy-tetrahydrofuran-2-yl]methoxy-oxido-phosphoryl]oxy-[[hydroxy(oxido)phosphoryl]methyl]phosphinate
   47    49     1     0     0
SMALL
USER_CHARGES

@<TRIPOS>ATOM
      1 PG          4.9591   -3.5824    0.1562 P.3       1 ACP        -1.2804
      2 O1G         4.0843   -2.3506    0.1701 O.co2     1 ACP         0.3195
      3 O2G         5.6173   -4.1146    1.4083 O.co2     1 ACP         0.3195
      4 O3G         4.1739   -4.7962   -0.5988 O.3       1 ACP         0.0326
      5 PB          5.9555   -2.9998   -2.8840 P.3       1 ACP        -1.2804
      6 O1B         5.2122   -4.2023   -3.4171 O.co2     1 ACP         0.3195
      7 O2B         7.2434   -2.5100   -3.5050 O.co2     1 ACP         0.3195
      8 C3B         6.2915   -3.3075   -1.0934 C.3       1 ACP         0.8942
      9 PA          3.9989   -0.9668   -3.8036 P.3       1 ACP        -1.1062
     10 O1A         2.9333   -1.9217   -4.2962 O.co2     1 ACP         0.3195
     11 O2A         4.9087   -0.2557   -4.7819 O.co2     1 ACP         0.3195
     12 O3A         4.9256   -1.7480   -2.7091 O.3       1 ACP         0.4672
     13 O5'         3.2883    0.1336   -2.8242 O.3       1 ACP         0.1618
     14 C5'         2.2816   -0.2918   -1.9206 C.3       1 ACP         0.1504
     15 C4'         2.7248    0.0226   -0.4980 C.3       1 ACP         0.1111
     16 O4'         2.4697    1.4219   -0.2462 O.3       1 ACP        -0.1436
     17 C3'         1.9404   -0.7419    0.5596 C.3       1 ACP         0.1111
     18 O3'         2.7418   -0.8086    1.7389 O.3       1 ACP        -0.2728
     19 C2'         0.7477    0.1630    0.7858 C.3       1 ACP         0.1111
     20 O2'         0.1373   -0.0577    2.0407 O.3       1 ACP        -0.2728
     21 C1'         1.3733    1.5427    0.6747 C.3       1 ACP         0.2693
     22 N9          0.4520    2.5240    0.1767 N.pl3     1 ACP        -0.3222
     23 C8         -0.7463    2.2774   -0.7501 C.ar      1 ACP         0.1640
     24 N7         -1.3714    3.4419   -0.9948 N.2       1 ACP        -0.1640
     25 C5         -0.6104    4.3223   -0.2723 C.ar      1 ACP         0.0820
     26 C6         -0.9062    5.7820   -0.2194 C.ar      1 ACP         0.1640
     27 N6         -1.9385    6.2713   -0.8881 N.pl3     1 ACP        -0.4916
     28 N1         -0.0613    6.4906    0.5336 N.pl3     1 ACP        -0.4390
     29 C2          1.0416    5.8662    1.2291 C.ar      1 ACP         0.5691
     30 N3          1.3146    4.5989    1.1954 N.ar      1 ACP        -0.4283
     31 C4          0.4541    3.8697    0.4273 C.ar      1 ACP         0.2226
     32 HOG3        3.3175   -5.1004   -0.2295 H         1 ACP         0.2010
     33 H3B1        6.9387   -4.1902   -1.0456 H         1 ACP        -0.0393
     34 H3B2        6.8785   -2.4516   -0.7421 H         1 ACP        -0.0393
     35 H5'1        1.3500    0.2325   -2.1560 H         1 ACP        -0.0393
     36 H5'2        2.1267   -1.3683   -2.0444 H         1 ACP        -0.0393
     37 H4'         3.8046   -0.1390   -0.4011 H         1 ACP        -0.0393
     38 H3'         1.6787   -1.7627    0.2719 H         1 ACP        -0.0393
     39 HO3'        2.2231   -1.2979    2.3952 H         1 ACP         0.2010
     40 H2'         0.0002   -0.0084   -0.0014 H         1 ACP        -0.0393
     41 HO2'        0.8091    0.1203    2.7213 H         1 ACP         0.2010
     42 H1'         1.7718    1.9211    1.6015 H         1 ACP        -0.0393
     43 H8         -1.1244    1.3534   -1.1987 H         1 ACP         0.0000
     44 HN61       -2.5259    5.6573   -1.4336 H         1 ACP         0.2048
     45 HN62       -2.1416    7.2600   -0.8539 H         1 ACP         0.2048
     46 H2          1.6509    6.5764    1.8088 H         1 ACP        -0.1292
     47 H47        -0.2190    7.4917    0.6033 H         1 ACP         0.2048
@<TRIPOS>BOND
     1    1    2 2
     2    1    3 1
     3    1    4 1
     4    1    8 1
     5    4   32 1
     6    5    6 2
     7    5    7 1
     8    5    8 1
     9    5   12 1
    10    8   33 1
    11    8   34 1
    12    9   10 2
    13    9   11 1
    14    9   12 1
    15    9   13 1
    16   13   14 1
    17   14   15 1
    18   14   35 1
    19   14   36 1
    20   15   16 1
    21   15   17 1
    22   15   37 1
    23   16   21 1
    24   17   18 1
    25   17   19 1
    26   17   38 1
    27   18   39 1
    28   19   20 1
    29   19   21 1
    30   19   40 1
    31   20   41 1
    32   21   22 1
    33   21   42 1
    34   22   23 ar
    35   22   31 ar
    36   23   24 ar
    37   23   43 1
    38   24   25 ar
    39   25   26 ar
    40   25   31 ar
    41   26   27 1
    42   26   28 ar
    43   27   44 1
    44   27   45 1
    45   28   29 ar
    46   28   47 1
    47   29   30 ar
    48   29   46 1
    49   30   31 ar
@<TRIPOS>SUBSTRUCTURE
     1 ACP         1 GROUP 0 A     ****
@<TRIPOS>MOLECULE
[[5-(6-amino-1,8-dihydropurine-6,8-diylium-7-id-9-yl)-3,4-dihydroxy-tetrahydrofuran-2-yl]methoxy-oxido-phosphoryl]oxy-[[hydroxy(oxido)phosphoryl]methyl]phosphinate
   47    49     1     0     0
SMALL
USER_CHARGES

@<TRIPOS>ATOM
      1 PG         -0.7696   -1.5853   -5.2862 P.3       1 ACP        -1.2804
      2 O1G        -1.8558   -0.5745   -5.0010 O.co2     1 ACP         0.3195
      3 O2G         0.1167   -2.1416   -4.1957 O.co2     1 ACP         0.3195
      4 O3G        -1.3900   -2.8159   -6.1582 O.3       1 ACP         0.0326
      5 PB          1.2661    0.7115   -6.3614 P.3       1 ACP        -1.2804
      6 O1B         0.2513    1.8037   -6.1166 O.co2     1 ACP         0.3195
      7 O2B         2.2826    0.7934   -7.4769 O.co2     1 ACP         0.3195
      8 C3B         0.3342   -0.8686   -6.5824 C.3       1 ACP         0.8942
      9 PA          2.9215    1.2532   -3.9587 P.3       1 ACP        -1.1062
     10 O1A         2.0230    2.2933   -3.3258 O.co2     1 ACP         0.3195
     11 O2A         4.1836    1.6642   -4.6857 O.co2     1 ACP         0.3195
     12 O3A         2.0199    0.3363   -4.9653 O.3       1 ACP         0.4672
     13 O5'         3.2883    0.1336   -2.8242 O.3       1 ACP         0.1618
     14 C5'         2.2816   -0.2918   -1.9206 C.3       1 ACP         0.1504
     15 C4'         2.7248    0.0226   -0.4980 C.3       1 ACP         0.1111
     16 O4'         2.4697    1.4219   -0.2462 O.3       1 ACP        -0.1436
     17 C3'         1.9404   -0.7419    0.5596 C.3       1 ACP         0.1111
     18 O3'         2.7418   -0.8086    1.7389 O.3       1 ACP        -0.2728
     19 C2'         0.7477    0.1630    0.7858 C.3       1 ACP         0.1111
     20 O2'         0.1373   -0.0577    2.0407 O.3       1 ACP        -0.2728
     21 C1'         1.3733    1.5427    0.6747 C.3       1 ACP         0.2693
     22 N9          0.4520    2.5240    0.1767 N.pl3     1 ACP        -0.3222
     23 C8          0.5793    3.3338   -1.1209 C.ar      1 ACP         0.1640
     24 N7         -0.4807    4.1508   -1.2458 N.2       1 ACP        -0.1640
     25 C5         -1.1921    3.8572   -0.1126 C.ar      1 ACP         0.0820
     26 C6         -2.4855    4.5203    0.2163 C.ar      1 ACP         0.1640
     27 N6         -2.9873    5.4319   -0.6020 N.pl3     1 ACP        -0.4916
     28 N1         -3.0414    4.1119    1.3596 N.pl3     1 ACP        -0.4390
     29 C2         -2.4169    3.1071    2.1904 C.ar      1 ACP         0.5691
     30 N3         -1.2928    2.5191    1.9210 N.ar      1 ACP        -0.4283
     31 C4         -0.7202    2.9326    0.7534 C.ar      1 ACP         0.2226
     32 HOG3       -2.1247   -3.3389   -5.7723 H         1 ACP         0.2010
     33 H3B1       -0.2892   -0.7398   -7.4742 H         1 ACP        -0.0393
     34 H3B2        1.0831   -1.6341   -6.8142 H         1 ACP        -0.0393
     35 H5'1        1.3500    0.2325   -2.1560 H         1 ACP        -0.0393
     36 H5'2        2.1267   -1.3683   -2.0444 H         1 ACP        -0.0393
     37 H4'         3.8046   -0.1390   -0.4011 H         1 ACP        -0.0393
     38 H3'         1.6787   -1.7627    0.2719 H         1 ACP        -0.0393
     39 HO3'        2.2231   -1.2979    2.3952 H         1 ACP         0.2010
     40 H2'         0.0002   -0.0084   -0.0014 H         1 ACP        -0.0393
     41 HO2'       -0.1554   -0.9852    2.0577 H         1 ACP         0.2010
     42 H1'         1.7718    1.9211    1.6015 H         1 ACP        -0.0393
     43 H8          1.3565    3.3309   -1.8916 H         1 ACP         0.0000
     44 HN61       -2.4952    5.6785   -1.4487 H         1 ACP         0.2048
     45 HN62       -3.8637    5.8828   -0.3819 H         1 ACP         0.2048
     46 H2         -2.9911    2.8734    3.1000 H         1 ACP        -0.1292
     47 H47        -3.9253    4.5332    1.6302 H         1 ACP         0.2048
@<TRIPOS>BOND
     1    1    2 2
     2    1    3 1
     3    1    4 1
     4    1    8 1
     5    4   32 1
     6    5    6 2
     7    5    7 1
     8    5    8 1
     9    5   12 1
    10    8   33 1
    11    8   34 1
    12    9   10 2
    13    9   11 1
    14    9   12 1
    15    9   13 1
    16   13   14 1
    17   14   15 1
    18   14   35 1
    19   14   36 1
    20   15   16 1
    21   15   17 1
    22   15   37 1
    23   16   21 1
    24   17   18 1
    25   17   19 1
    26   17   38 1
    27   18   39 1
    28   19   20 1
    29   19   21 1
    30   19   40 1
    31   20   41 1
    32   21   22 1
    33   21   42 1
    34   22   23 ar
    35   22   31 ar
    36   23   24 ar
    37   23   43 1
    38   24   25 ar
    39   25   26 ar
    40   25   31 ar
    41   26   27 1
    42   26   28 ar
    43   27   44 1
    44   27   45 1
    45   28   29 ar
    46   28   47 1
    47   29   30 ar
    48   29   46 1
    49   30   31 ar
@<TRIPOS>SUBSTRUCTURE
     1 ACP         1 GROUP 0 A     ****
@<TRIPOS>MOLECULE
[[5-(6-amino-1,8-dihydropurine-6,8-diylium-7-id-9-yl)-3,4-dihydroxy-tetrahydrofuran-2-yl]methoxy-oxido-phosphoryl]oxy-[[hydroxy(oxido)phosphoryl]methyl]phosphinate
   47    49     1     0     0
SMALL
USER_CHARGES

@<TRIPOS>ATOM
      1 PG         -1.1318    0.4553   -5.7381 P.3       1 ACP        -1.2804
      2 O1G        -2.5754    0.0822   -5.4937 O.co2     1 ACP         0.3195
      3 O2G         0.0027   -0.5079   -5.4748 O.co2     1 ACP         0.3195
      4 O3G        -0.9785    1.0728   -7.2398 O.3       1 ACP         0.0326
      5 PB          0.8646    2.8320   -4.7682 P.3       1 ACP        -1.2804
      6 O1B         0.7488    4.0451   -3.8749 O.co2     1 ACP         0.3195
      7 O2B         1.3271    2.9314   -6.2036 O.co2     1 ACP         0.3195
      8 C3B        -0.7825    1.9947   -4.7787 C.3       1 ACP         0.8942
      9 PA          3.2331    1.6548   -3.4224 P.3       1 ACP        -1.1062
     10 O1A         3.3076    2.6238   -2.2625 O.co2     1 ACP         0.3195
     11 O2A         4.1918    1.7719   -4.5876 O.co2     1 ACP         0.3195
     12 O3A         1.7074    1.6637   -4.0049 O.3       1 ACP         0.4672
     13 O5'         3.2883    0.1336   -2.8242 O.3       1 ACP         0.1618
     14 C5'         2.2816   -0.2918   -1.9206 C.3       1 ACP         0.1504
     15 C4'         2.7248    0.0226   -0.4980 C.3       1 ACP         0.1111
     16 O4'         2.4697    1.4219   -0.2462 O.3       1 ACP        -0.1436
     17 C3'         1.9404   -0.7419    0.5596 C.3       1 ACP         0.1111
     18 O3'         2.7418   -0.8086    1.7389 O.3       1 ACP        -0.2728
     19 C2'         0.7477    0.1630    0.7858 C.3       1 ACP         0.1111
     20 O2'         0.1373   -0.0577    2.0407 O.3       1 ACP        -0.2728
     21 C1'         1.3733    1.5427    0.6747 C.3       1 ACP         0.2693
     22 N9          0.4520    2.5240    0.1767 N.pl3     1 ACP        -0.3222
     23 C8          0.5793    3.3338   -1.1209 C.ar      1 ACP         0.1640
     24 N7         -0.4807    4.1508   -1.2458 N.2       1 ACP        -0.1640
     25 C5         -1.1921    3.8572   -0.1126 C.ar      1 ACP         0.0820
     26 C6         -2.4855    4.5203    0.2163 C.ar      1 ACP         0.1640
     27 N6         -2.9873    5.4319   -0.6020 N.pl3     1 ACP        -0.4916
     28 N1         -3.0414    4.1119    1.3596 N.pl3     1 ACP        -0.4390
     29 C2         -2.4169    3.1071    2.1904 C.ar      1 ACP         0.5691
     30 N3         -1.2928    2.5191    1.9210 N.ar      1 ACP        -0.4283
     31 C4         -0.7202    2.9326    0.7534 C.ar      1 ACP         0.2226
     32 HOG3       -1.2254    0.5101   -8.0044 H         1 ACP         0.2010
     33 H3B1       -1.0195    1.7616   -3.7346 H         1 ACP        -0.0393
     34 H3B2       -1.5041    2.7459   -5.1184 H         1 ACP        -0.0393
     35 H5'1        1.3500    0.2325   -2.1560 H         1 ACP        -0.0393
     36 H5'2        2.1267   -1.3683   -2.0444 H         1 ACP        -0.0393
     37 H4'         3.8046   -0.1390   -0.4011 H         1 ACP        -0.0393
     38 H3'         1.6787   -1.7627    0.2719 H         1 ACP        -0.0393
     39 HO3'        2.2231   -1.2979    2.3952 H         1 ACP         0.2010
     40 H2'         0.0002   -0.0084   -0.0014 H         1 ACP        -0.0393
     41 HO2'       -0.1554   -0.9852    2.0577 H         1 ACP         0.2010
     42 H1'         1.7718    1.9211    1.6015 H         1 ACP        -0.0393
     43 H8          1.3565    3.3309   -1.8916 H         1 ACP         0.0000
     44 HN61       -2.4952    5.6785   -1.4487 H         1 ACP         0.2048
     45 HN62       -3.8637    5.8828   -0.3819 H         1 ACP         0.2048
     46 H2         -2.9911    2.8734    3.1000 H         1 ACP        -0.1292
     47 H47        -3.9253    4.5332    1.6302 H         1 ACP         0.2048
@<TRIPOS>BOND
     1    1    2 2
     2    1    3 1
     3    1    4 1
     4    1    8 1
     5    4   32 1
     6    5    6 2
     7    5    7 1
     8    5    8 1
     9    5   12 1
    10    8   33 1
    11    8   34 1
    12    9   10 2
    13    9   11 1
    14    9   12 1
    15    9   13 1
    16   13   14 1
    17   14   15 1
    18   14   35 1
    19   14   36 1
    20   15   16 1
    21   15   17 1
    22   15   37 1
    23   16   21 1
    24   17   18 1
    25   17   19 1
    26   17   38 1
    27   18   39 1
    28   19   20 1
    29   19   21 1
    30   19   40 1
    31   20   41 1
    32   21   22 1
    33   21   42 1
    34   22   23 ar
    35   22   31 ar
    36   23   24 ar
    37   23   43 1
    38   24   25 ar
    39   25   26 ar
    40   25   31 ar
    41   26   27 1
    42   26   28 ar
    43   27   44 1
    44   27   45 1
    45   28   29 ar
    46   28   47 1
    47   29   30 ar
    48   29   46 1
    49   30   31 ar
@<TRIPOS>SUBSTRUCTURE
     1 ACP         1 GROUP 0 A     ****
