@<TRIPOS>MOLECULE
[[5-(6-amino-7,8-dihydropurin-8-ylium-9-yl)-3,4-dihydroxy-tetrahydrofuran-2-yl]methoxy-hydroxy-phosphoryl]oxy-(phosphonomethyl)phosphinate
   49    51     1     0     0
SMALL
USER_CHARGES

@<TRIPOS>ATOM
      1 PG         -2.2391    0.3958   -3.7259 P.3       1 ACP         1.6362
      2 O1G        -1.4221    0.1547   -2.4923 O.2       1 ACP        -0.8691
      3 O2G        -2.8138   -0.9294   -4.4495 O.3       1 ACP        -0.8016
      4 O3G        -3.5506    1.3162   -3.5199 O.3       1 ACP        -0.8016
      5 PB          0.1741    0.5396   -5.8327 P.3       1 ACP         1.4874
      6 O1B         0.6266    1.5194   -6.8905 O.co2     1 ACP        -0.8240
      7 O2B        -0.1104   -0.9108   -6.1468 O.co2     1 ACP        -0.8240
      8 C3B        -1.3497    1.2408   -5.0532 C.3       1 ACP        -0.6510
      9 PA          2.7557    0.3904   -4.4164 P.3       1 ACP         1.7966
     10 O1A         3.5959    1.2926   -5.2730 O.2       1 ACP        -0.8436
     11 O2A         2.9225   -1.1855   -4.7419 O.3       1 ACP        -0.8190
     12 O3A         1.1623    0.6387   -4.5396 O.3       1 ACP        -0.7947
     13 O5'         3.0190    0.5130   -2.8246 O.3       1 ACP        -0.5846
     14 C5'         2.2816   -0.2918   -1.9206 C.3       1 ACP         0.2005
     15 C4'         2.7248    0.0226   -0.4980 C.3       1 ACP         0.0711
     16 O4'         2.4697    1.4219   -0.2462 O.3       1 ACP        -0.4064
     17 C3'         1.9404   -0.7419    0.5596 C.3       1 ACP         0.0975
     18 O3'         2.7418   -0.8086    1.7389 O.3       1 ACP        -0.5957
     19 C2'         0.7477    0.1630    0.7858 C.3       1 ACP         0.1195
     20 O2'         0.1373   -0.0577    2.0407 O.3       1 ACP        -0.5845
     21 C1'         1.3733    1.5427    0.6747 C.3       1 ACP         0.4064
     22 N9          0.4520    2.5240    0.1767 N.pl3     1 ACP        -0.5630
     23 C8          0.1928    2.8484   -1.0815 C.ar      1 ACP         0.2808
     24 N7         -0.7248    3.8048   -1.2110 N.pl3     1 ACP        -0.5040
     25 C5         -1.0765    4.1129    0.0571 C.ar      1 ACP        -0.2807
     26 C6         -1.9614    5.0063    0.5851 C.ar      1 ACP         0.7712
     27 N6         -2.7145    5.8254   -0.2810 N.pl3     1 ACP        -0.9461
     28 N1         -2.1199    5.1113    1.9228 N.ar      1 ACP        -0.7457
     29 C2         -1.3522    4.2822    2.6839 C.ar      1 ACP         0.7201
     30 N3         -0.4501    3.3660    2.2638 N.ar      1 ACP        -0.6849
     31 C4         -0.3487    3.3198    0.9322 C.ar      1 ACP         0.6369
     32 HOG2       -3.3553   -0.8308   -5.2614 H         1 ACP         0.4781
     33 HOG3       -4.2458    1.0199   -2.8944 H         1 ACP         0.4781
     34 H3B1       -2.0631    1.3940   -5.8708 H         1 ACP         0.1236
     35 H3B2       -1.0703    2.2340   -4.6835 H         1 ACP         0.1236
     36 HOA2        3.8079   -1.5976   -4.6497 H         1 ACP         0.4716
     37 H5'1        1.2149   -0.0786   -2.0446 H         1 ACP         0.0529
     38 H5'2        2.4640   -1.3459   -2.1539 H         1 ACP         0.0529
     39 H4'         3.8049   -0.1388   -0.4009 H         1 ACP         0.1213
     40 H3'         1.6783   -1.7629    0.2715 H         1 ACP         0.0524
     41 HO3'        2.2232   -1.2979    2.3953 H         1 ACP         0.4707
     42 H2'        -0.0011    0.0027    0.0003 H         1 ACP         0.0774
     43 HO2'       -0.6141    0.5574    2.1082 H         1 ACP         0.4561
     44 H1'         1.7826    1.9024    1.6451 H         1 ACP         0.1559
     45 H8          0.6728    2.3873   -1.9272 H         1 ACP         0.2754
     46 HN61       -2.5537    5.7714   -1.2667 H         1 ACP         0.4584
     47 HN62       -3.3283    6.5126    0.1081 H         1 ACP         0.4584
     48 H2         -1.4818    4.3694    3.7565 H         1 ACP         0.0892
     49 H49        -1.0701    4.2005   -2.0743 H         1 ACP         0.5039
@<TRIPOS>BOND
     1    1    2 2
     2    1    3 1
     3    1    4 1
     4    1    8 1
     5    3   32 1
     6    4   33 1
     7    5    6 2
     8    5    7 1
     9    5    8 1
    10    5   12 1
    11    8   34 1
    12    8   35 1
    13    9   10 2
    14    9   11 1
    15    9   12 1
    16    9   13 1
    17   11   36 1
    18   13   14 1
    19   14   15 1
    20   14   37 1
    21   14   38 1
    22   15   16 1
    23   15   17 1
    24   15   39 1
    25   16   21 1
    26   17   18 1
    27   17   19 1
    28   17   40 1
    29   18   41 1
    30   19   20 1
    31   19   21 1
    32   19   42 1
    33   20   43 1
    34   21   22 1
    35   21   44 1
    36   22   23 ar
    37   22   31 ar
    38   23   24 ar
    39   23   45 1
    40   24   25 ar
    41   24   49 1
    42   25   26 ar
    43   25   31 ar
    44   26   27 1
    45   26   28 ar
    46   27   46 1
    47   27   47 1
    48   28   29 ar
    49   29   30 ar
    50   29   48 1
    51   30   31 ar
@<TRIPOS>SUBSTRUCTURE
     1 ACP         1 GROUP 0 A     ****
@<TRIPOS>MOLECULE
[[5-(6-amino-7,8-dihydropurin-8-ylium-9-yl)-3,4-dihydroxy-tetrahydrofuran-2-yl]methoxy-hydroxy-phosphoryl]oxy-(phosphonomethyl)phosphinate
   49    51     1     0     0
SMALL
USER_CHARGES

@<TRIPOS>ATOM
      1 PG          3.5066    1.8576   -5.6387 P.3       1 ACP         1.6362
      2 O1G         2.0427    1.6296   -5.4094 O.2       1 ACP        -0.8691
      3 O2G         3.8729    2.8550   -6.8556 O.3       1 ACP        -0.8016
      4 O3G         4.3170    2.4738   -4.3843 O.3       1 ACP        -0.8016
      5 PB          4.5355   -1.0840   -4.8827 P.3       1 ACP         1.4874
      6 O1B         5.1584   -0.5907   -3.5973 O.co2     1 ACP        -0.8240
      7 O2B         5.1110   -2.2419   -5.6645 O.co2     1 ACP        -0.8240
      8 C3B         4.4392    0.3607   -6.0338 C.3       1 ACP        -0.6510
      9 PA          2.1469   -2.2812   -3.6362 P.3       1 ACP         1.7966
     10 O1A         2.4486   -3.7424   -3.8027 O.2       1 ACP        -0.8436
     11 O2A         0.5931   -1.8902   -3.8605 O.3       1 ACP        -0.8190
     12 O3A         2.9361   -1.3107   -4.6613 O.3       1 ACP        -0.7947
     13 O5'         2.5233   -1.6622   -2.1894 O.3       1 ACP        -0.5846
     14 C5'         2.2816   -0.2918   -1.9206 C.3       1 ACP         0.2005
     15 C4'         2.7248    0.0226   -0.4980 C.3       1 ACP         0.0711
     16 O4'         2.4697    1.4219   -0.2462 O.3       1 ACP        -0.4064
     17 C3'         1.9404   -0.7419    0.5596 C.3       1 ACP         0.0975
     18 O3'         2.7418   -0.8086    1.7389 O.3       1 ACP        -0.5957
     19 C2'         0.7477    0.1630    0.7858 C.3       1 ACP         0.1195
     20 O2'         0.1373   -0.0577    2.0407 O.3       1 ACP        -0.5845
     21 C1'         1.3733    1.5427    0.6747 C.3       1 ACP         0.4064
     22 N9          0.4520    2.5240    0.1767 N.pl3     1 ACP        -0.5630
     23 C8          0.1928    2.8484   -1.0815 C.ar      1 ACP         0.2808
     24 N7         -0.7248    3.8048   -1.2110 N.pl3     1 ACP        -0.5040
     25 C5         -1.0765    4.1129    0.0571 C.ar      1 ACP        -0.2807
     26 C6         -1.9614    5.0063    0.5851 C.ar      1 ACP         0.7712
     27 N6         -2.7145    5.8254   -0.2810 N.pl3     1 ACP        -0.9461
     28 N1         -2.1199    5.1113    1.9228 N.ar      1 ACP        -0.7457
     29 C2         -1.3522    4.2822    2.6839 C.ar      1 ACP         0.7201
     30 N3         -0.4501    3.3660    2.2638 N.ar      1 ACP        -0.6849
     31 C4         -0.3487    3.3198    0.9322 C.ar      1 ACP         0.6369
     32 HOG2        4.8162    3.0404   -7.0509 H         1 ACP         0.4781
     33 HOG3        4.0488    3.3475   -4.0280 H         1 ACP         0.4781
     34 H3B1        4.0353   -0.0302   -6.9746 H         1 ACP         0.1236
     35 H3B2        5.4750    0.6592   -6.2312 H         1 ACP         0.1236
     36 HOA2       -0.0865   -2.2971   -3.2819 H         1 ACP         0.4716
     37 H5'1        2.8428    0.3150   -2.6387 H         1 ACP         0.0529
     38 H5'2        1.2124   -0.0896   -2.0417 H         1 ACP         0.0529
     39 H4'         3.8049   -0.1388   -0.4009 H         1 ACP         0.1213
     40 H3'         1.6783   -1.7629    0.2715 H         1 ACP         0.0524
     41 HO3'        2.2232   -1.2979    2.3953 H         1 ACP         0.4707
     42 H2'        -0.0011    0.0027    0.0003 H         1 ACP         0.0774
     43 HO2'       -0.6141    0.5574    2.1082 H         1 ACP         0.4561
     44 H1'         1.7826    1.9024    1.6451 H         1 ACP         0.1559
     45 H8          0.6728    2.3873   -1.9272 H         1 ACP         0.2754
     46 HN61       -2.5537    5.7714   -1.2667 H         1 ACP         0.4584
     47 HN62       -3.3283    6.5126    0.1081 H         1 ACP         0.4584
     48 H2         -1.4818    4.3694    3.7565 H         1 ACP         0.0892
     49 H49        -1.0701    4.2005   -2.0743 H         1 ACP         0.5039
@<TRIPOS>BOND
     1    1    2 2
     2    1    3 1
     3    1    4 1
     4    1    8 1
     5    3   32 1
     6    4   33 1
     7    5    6 2
     8    5    7 1
     9    5    8 1
    10    5   12 1
    11    8   34 1
    12    8   35 1
    13    9   10 2
    14    9   11 1
    15    9   12 1
    16    9   13 1
    17   11   36 1
    18   13   14 1
    19   14   15 1
    20   14   37 1
    21   14   38 1
    22   15   16 1
    23   15   17 1
    24   15   39 1
    25   16   21 1
    26   17   18 1
    27   17   19 1
    28   17   40 1
    29   18   41 1
    30   19   20 1
    31   19   21 1
    32   19   42 1
    33   20   43 1
    34   21   22 1
    35   21   44 1
    36   22   23 ar
    37   22   31 ar
    38   23   24 ar
    39   23   45 1
    40   24   25 ar
    41   24   49 1
    42   25   26 ar
    43   25   31 ar
    44   26   27 1
    45   26   28 ar
    46   27   46 1
    47   27   47 1
    48   28   29 ar
    49   29   30 ar
    50   29   48 1
    51   30   31 ar
@<TRIPOS>SUBSTRUCTURE
     1 ACP         1 GROUP 0 A     ****
@<TRIPOS>MOLECULE
[[5-(6-amino-7,8-dihydropurin-8-ylium-9-yl)-3,4-dihydroxy-tetrahydrofuran-2-yl]methoxy-hydroxy-phosphoryl]oxy-(phosphonomethyl)phosphinate
   49    51     1     0     0
SMALL
USER_CHARGES

@<TRIPOS>ATOM
      1 PG         -2.2391    0.3958   -3.7259 P.3       1 ACP         1.6362
      2 O1G        -2.7565   -0.9614   -4.0969 O.2       1 ACP        -0.8691
      3 O2G        -3.3613    1.4721   -3.2875 O.3       1 ACP        -0.8016
      4 O3G        -1.1850    0.4250   -2.5021 O.3       1 ACP        -0.8016
      5 PB          0.1741    0.5396   -5.8327 P.3       1 ACP         1.4874
      6 O1B         0.6266    1.5194   -6.8905 O.co2     1 ACP        -0.8240
      7 O2B        -0.1104   -0.9108   -6.1468 O.co2     1 ACP        -0.8240
      8 C3B        -1.3497    1.2408   -5.0532 C.3       1 ACP        -0.6510
      9 PA          2.7557    0.3904   -4.4164 P.3       1 ACP         1.7966
     10 O1A         3.5959    1.2926   -5.2730 O.2       1 ACP        -0.8436
     11 O2A         2.9225   -1.1855   -4.7419 O.3       1 ACP        -0.8190
     12 O3A         1.1623    0.6387   -4.5396 O.3       1 ACP        -0.7947
     13 O5'         3.0190    0.5130   -2.8246 O.3       1 ACP        -0.5846
     14 C5'         2.2816   -0.2918   -1.9206 C.3       1 ACP         0.2005
     15 C4'         2.7248    0.0226   -0.4980 C.3       1 ACP         0.0711
     16 O4'         2.4697    1.4219   -0.2462 O.3       1 ACP        -0.4064
     17 C3'         1.9404   -0.7419    0.5596 C.3       1 ACP         0.0975
     18 O3'         2.7418   -0.8086    1.7389 O.3       1 ACP        -0.5957
     19 C2'         0.7477    0.1630    0.7858 C.3       1 ACP         0.1195
     20 O2'         0.1373   -0.0577    2.0407 O.3       1 ACP        -0.5845
     21 C1'         1.3733    1.5427    0.6747 C.3       1 ACP         0.4064
     22 N9          0.4520    2.5240    0.1767 N.pl3     1 ACP        -0.5630
     23 C8          0.5305    3.2394   -0.9358 C.ar      1 ACP         0.2808
     24 N7         -0.4966    4.0680   -1.1145 N.pl3     1 ACP        -0.5040
     25 C5         -1.2879    3.8664   -0.0375 C.ar      1 ACP        -0.2807
     26 C6         -2.4754    4.4084    0.3577 C.ar      1 ACP         0.7712
     27 N6         -3.0892    5.3882   -0.4495 N.pl3     1 ACP        -0.9461
     28 N1         -3.0632    4.0158    1.5092 N.ar      1 ACP        -0.7457
     29 C2         -2.4008    3.0654    2.2262 C.ar      1 ACP         0.7201
     30 N3         -1.2259    2.4663    1.9260 N.ar      1 ACP        -0.6849
     31 C4         -0.7062    2.9047    0.7757 C.ar      1 ACP         0.6369
     32 HOG2       -3.9313    1.2762   -2.5136 H         1 ACP         0.4781
     33 HOG3       -0.8129    1.2863   -2.2156 H         1 ACP         0.4781
     34 H3B1       -2.0631    1.3940   -5.8708 H         1 ACP         0.1236
     35 H3B2       -1.0703    2.2340   -4.6835 H         1 ACP         0.1236
     36 HOA2        3.8079   -1.5976   -4.6497 H         1 ACP         0.4716
     37 H5'1        1.2149   -0.0786   -2.0446 H         1 ACP         0.0529
     38 H5'2        2.4640   -1.3459   -2.1539 H         1 ACP         0.0529
     39 H4'         3.8049   -0.1388   -0.4009 H         1 ACP         0.1213
     40 H3'         1.6783   -1.7629    0.2715 H         1 ACP         0.0524
     41 HO3'        2.2232   -1.2979    2.3953 H         1 ACP         0.4707
     42 H2'        -0.0011    0.0027    0.0003 H         1 ACP         0.0774
     43 HO2'       -0.1563   -0.9855    2.0596 H         1 ACP         0.4561
     44 H1'         1.7826    1.9024    1.6451 H         1 ACP         0.1559
     45 H8          1.3437    3.1645   -1.6367 H         1 ACP         0.2754
     46 HN61       -2.6210    5.7042   -1.2748 H         1 ACP         0.4584
     47 HN62       -3.9356    5.8187   -0.1356 H         1 ACP         0.4584
     48 H2         -2.8752    2.7532    3.1495 H         1 ACP         0.0892
     49 H49        -0.6372    4.7004   -1.8900 H         1 ACP         0.5039
@<TRIPOS>BOND
     1    1    2 2
     2    1    3 1
     3    1    4 1
     4    1    8 1
     5    3   32 1
     6    4   33 1
     7    5    6 2
     8    5    7 1
     9    5    8 1
    10    5   12 1
    11    8   34 1
    12    8   35 1
    13    9   10 2
    14    9   11 1
    15    9   12 1
    16    9   13 1
    17   11   36 1
    18   13   14 1
    19   14   15 1
    20   14   37 1
    21   14   38 1
    22   15   16 1
    23   15   17 1
    24   15   39 1
    25   16   21 1
    26   17   18 1
    27   17   19 1
    28   17   40 1
    29   18   41 1
    30   19   20 1
    31   19   21 1
    32   19   42 1
    33   20   43 1
    34   21   22 1
    35   21   44 1
    36   22   23 ar
    37   22   31 ar
    38   23   24 ar
    39   23   45 1
    40   24   25 ar
    41   24   49 1
    42   25   26 ar
    43   25   31 ar
    44   26   27 1
    45   26   28 ar
    46   27   46 1
    47   27   47 1
    48   28   29 ar
    49   29   30 ar
    50   29   48 1
    51   30   31 ar
@<TRIPOS>SUBSTRUCTURE
     1 ACP         1 GROUP 0 A     ****
@<TRIPOS>MOLECULE
[[5-(6-amino-7,8-dihydropurin-8-ylium-9-yl)-3,4-dihydroxy-tetrahydrofuran-2-yl]methoxy-hydroxy-phosphoryl]oxy-(phosphonomethyl)phosphinate
   49    51     1     0     0
SMALL
USER_CHARGES

@<TRIPOS>ATOM
      1 PG         -1.1290    0.7639   -5.8646 P.3       1 ACP         1.6362
      2 O1G        -0.6938    1.4245   -4.5911 O.2       1 ACP        -0.8691
      3 O2G        -2.7145    0.4828   -5.9957 O.3       1 ACP        -0.8016
      4 O3G        -0.7715    1.5675   -7.2197 O.3       1 ACP        -0.8016
      5 PB          1.4325   -1.1192   -6.2832 P.3       1 ACP         1.4874
      6 O1B         1.9145   -0.2900   -7.4509 O.co2     1 ACP        -0.8240
      7 O2B         1.6841   -2.6065   -6.1927 O.co2     1 ACP        -0.8240
      8 C3B        -0.3943   -0.8630   -6.1469 C.3       1 ACP        -0.6510
      9 PA          3.3384   -0.0297   -4.3151 P.3       1 ACP         1.7966
     10 O1A         4.1258    0.9106   -5.1809 O.2       1 ACP        -0.8436
     11 O2A         4.0360   -1.4716   -4.0883 O.3       1 ACP        -0.8190
     12 O3A         1.8718   -0.4013   -4.8868 O.3       1 ACP        -0.7947
     13 O5'         3.0190    0.5130   -2.8246 O.3       1 ACP        -0.5846
     14 C5'         2.2816   -0.2918   -1.9206 C.3       1 ACP         0.2005
     15 C4'         2.7248    0.0226   -0.4980 C.3       1 ACP         0.0711
     16 O4'         2.4697    1.4219   -0.2462 O.3       1 ACP        -0.4064
     17 C3'         1.9404   -0.7419    0.5596 C.3       1 ACP         0.0975
     18 O3'         2.7418   -0.8086    1.7389 O.3       1 ACP        -0.5957
     19 C2'         0.7477    0.1630    0.7858 C.3       1 ACP         0.1195
     20 O2'         0.1373   -0.0577    2.0407 O.3       1 ACP        -0.5845
     21 C1'         1.3733    1.5427    0.6747 C.3       1 ACP         0.4064
     22 N9          0.4520    2.5240    0.1767 N.pl3     1 ACP        -0.5630
     23 C8          0.1928    2.8484   -1.0815 C.ar      1 ACP         0.2808
     24 N7         -0.7248    3.8048   -1.2110 N.pl3     1 ACP        -0.5040
     25 C5         -1.0765    4.1129    0.0571 C.ar      1 ACP        -0.2807
     26 C6         -1.9614    5.0063    0.5851 C.ar      1 ACP         0.7712
     27 N6         -2.7145    5.8254   -0.2810 N.pl3     1 ACP        -0.9461
     28 N1         -2.1199    5.1113    1.9228 N.ar      1 ACP        -0.7457
     29 C2         -1.3522    4.2822    2.6839 C.ar      1 ACP         0.7201
     30 N3         -0.4501    3.3660    2.2638 N.ar      1 ACP        -0.6849
     31 C4         -0.3487    3.3198    0.9322 C.ar      1 ACP         0.6369
     32 HOG2       -3.3362    1.2408   -5.9616 H         1 ACP         0.4781
     33 HOG3       -1.0323    1.1826   -8.0835 H         1 ACP         0.4781
     34 H3B1       -0.7295   -1.5127   -5.3306 H         1 ACP         0.1236
     35 H3B2       -0.8253   -1.2643   -7.0712 H         1 ACP         0.1236
     36 HOA2        4.9197   -1.5094   -3.6642 H         1 ACP         0.4716
     37 H5'1        1.2149   -0.0786   -2.0446 H         1 ACP         0.0529
     38 H5'2        2.4640   -1.3459   -2.1539 H         1 ACP         0.0529
     39 H4'         3.8049   -0.1388   -0.4009 H         1 ACP         0.1213
     40 H3'         1.6783   -1.7629    0.2715 H         1 ACP         0.0524
     41 HO3'        2.2232   -1.2979    2.3953 H         1 ACP         0.4707
     42 H2'        -0.0011    0.0027    0.0003 H         1 ACP         0.0774
     43 HO2'       -0.6141    0.5574    2.1082 H         1 ACP         0.4561
     44 H1'         1.7826    1.9024    1.6451 H         1 ACP         0.1559
     45 H8          0.6728    2.3873   -1.9272 H         1 ACP         0.2754
     46 HN61       -2.5537    5.7714   -1.2667 H         1 ACP         0.4584
     47 HN62       -3.3283    6.5126    0.1081 H         1 ACP         0.4584
     48 H2         -1.4818    4.3694    3.7565 H         1 ACP         0.0892
     49 H49        -1.0701    4.2005   -2.0743 H         1 ACP         0.5039
@<TRIPOS>BOND
     1    1    2 2
     2    1    3 1
     3    1    4 1
     4    1    8 1
     5    3   32 1
     6    4   33 1
     7    5    6 2
     8    5    7 1
     9    5    8 1
    10    5   12 1
    11    8   34 1
    12    8   35 1
    13    9   10 2
    14    9   11 1
    15    9   12 1
    16    9   13 1
    17   11   36 1
    18   13   14 1
    19   14   15 1
    20   14   37 1
    21   14   38 1
    22   15   16 1
    23   15   17 1
    24   15   39 1
    25   16   21 1
    26   17   18 1
    27   17   19 1
    28   17   40 1
    29   18   41 1
    30   19   20 1
    31   19   21 1
    32   19   42 1
    33   20   43 1
    34   21   22 1
    35   21   44 1
    36   22   23 ar
    37   22   31 ar
    38   23   24 ar
    39   23   45 1
    40   24   25 ar
    41   24   49 1
    42   25   26 ar
    43   25   31 ar
    44   26   27 1
    45   26   28 ar
    46   27   46 1
    47   27   47 1
    48   28   29 ar
    49   29   30 ar
    50   29   48 1
    51   30   31 ar
@<TRIPOS>SUBSTRUCTURE
     1 ACP         1 GROUP 0 A     ****
@<TRIPOS>MOLECULE
[[5-(6-amino-7,8-dihydropurin-8-ylium-9-yl)-3,4-dihydroxy-tetrahydrofuran-2-yl]methoxy-hydroxy-phosphoryl]oxy-(phosphonomethyl)phosphinate
   49    51     1     0     0
SMALL
USER_CHARGES

@<TRIPOS>ATOM
      1 PG         -1.3966   -1.6692   -4.8773 P.3       1 ACP         1.6362
      2 O1G        -1.3625   -3.1673   -4.9239 O.2       1 ACP        -0.8691
      3 O2G        -2.8538   -1.0002   -5.0748 O.3       1 ACP        -0.8016
      4 O3G        -0.8555   -1.0058   -3.5073 O.3       1 ACP        -0.8016
      5 PB          1.4325   -1.1192   -6.2832 P.3       1 ACP         1.4874
      6 O1B         1.9145   -0.2900   -7.4509 O.co2     1 ACP        -0.8240
      7 O2B         1.6841   -2.6065   -6.1927 O.co2     1 ACP        -0.8240
      8 C3B        -0.3943   -0.8630   -6.1469 C.3       1 ACP        -0.6510
      9 PA          3.3384   -0.0297   -4.3151 P.3       1 ACP         1.7966
     10 O1A         4.1258    0.9106   -5.1809 O.2       1 ACP        -0.8436
     11 O2A         4.0360   -1.4716   -4.0883 O.3       1 ACP        -0.8190
     12 O3A         1.8718   -0.4013   -4.8868 O.3       1 ACP        -0.7947
     13 O5'         3.0190    0.5130   -2.8246 O.3       1 ACP        -0.5846
     14 C5'         2.2816   -0.2918   -1.9206 C.3       1 ACP         0.2005
     15 C4'         2.7248    0.0226   -0.4980 C.3       1 ACP         0.0711
     16 O4'         2.4697    1.4219   -0.2462 O.3       1 ACP        -0.4064
     17 C3'         1.9404   -0.7419    0.5596 C.3       1 ACP         0.0975
     18 O3'         2.7418   -0.8086    1.7389 O.3       1 ACP        -0.5957
     19 C2'         0.7477    0.1630    0.7858 C.3       1 ACP         0.1195
     20 O2'         0.1373   -0.0577    2.0407 O.3       1 ACP        -0.5845
     21 C1'         1.3733    1.5427    0.6747 C.3       1 ACP         0.4064
     22 N9          0.4520    2.5240    0.1767 N.pl3     1 ACP        -0.5630
     23 C8          0.1928    2.8484   -1.0815 C.ar      1 ACP         0.2808
     24 N7         -0.7248    3.8048   -1.2110 N.pl3     1 ACP        -0.5040
     25 C5         -1.0765    4.1129    0.0571 C.ar      1 ACP        -0.2807
     26 C6         -1.9614    5.0063    0.5851 C.ar      1 ACP         0.7712
     27 N6         -2.7145    5.8254   -0.2810 N.pl3     1 ACP        -0.9461
     28 N1         -2.1199    5.1113    1.9228 N.ar      1 ACP        -0.7457
     29 C2         -1.3522    4.2822    2.6839 C.ar      1 ACP         0.7201
     30 N3         -0.4501    3.3660    2.2638 N.ar      1 ACP        -0.6849
     31 C4         -0.3487    3.3198    0.9322 C.ar      1 ACP         0.6369
     32 HOG2       -3.5675   -1.2189   -4.4383 H         1 ACP         0.4781
     33 HOG3       -0.8544   -0.0287   -3.4204 H         1 ACP         0.4781
     34 H3B1       -0.8123   -1.1525   -7.1177 H         1 ACP         0.1236
     35 H3B2       -0.5409    0.2184   -6.0463 H         1 ACP         0.1236
     36 HOA2        4.9197   -1.5094   -3.6642 H         1 ACP         0.4716
     37 H5'1        1.2149   -0.0786   -2.0446 H         1 ACP         0.0529
     38 H5'2        2.4640   -1.3459   -2.1539 H         1 ACP         0.0529
     39 H4'         3.8049   -0.1388   -0.4009 H         1 ACP         0.1213
     40 H3'         1.6783   -1.7629    0.2715 H         1 ACP         0.0524
     41 HO3'        2.2232   -1.2979    2.3953 H         1 ACP         0.4707
     42 H2'        -0.0011    0.0027    0.0003 H         1 ACP         0.0774
     43 HO2'       -0.6141    0.5574    2.1082 H         1 ACP         0.4561
     44 H1'         1.7826    1.9024    1.6451 H         1 ACP         0.1559
     45 H8          0.6728    2.3873   -1.9272 H         1 ACP         0.2754
     46 HN61       -2.5537    5.7714   -1.2667 H         1 ACP         0.4584
     47 HN62       -3.3283    6.5126    0.1081 H         1 ACP         0.4584
     48 H2         -1.4818    4.3694    3.7565 H         1 ACP         0.0892
     49 H49        -1.0701    4.2005   -2.0743 H         1 ACP         0.5039
@<TRIPOS>BOND
     1    1    2 2
     2    1    3 1
     3    1    4 1
     4    1    8 1
     5    3   32 1
     6    4   33 1
     7    5    6 2
     8    5    7 1
     9    5    8 1
    10    5   12 1
    11    8   34 1
    12    8   35 1
    13    9   10 2
    14    9   11 1
    15    9   12 1
    16    9   13 1
    17   11   36 1
    18   13   14 1
    19   14   15 1
    20   14   37 1
    21   14   38 1
    22   15   16 1
    23   15   17 1
    24   15   39 1
    25   16   21 1
    26   17   18 1
    27   17   19 1
    28   17   40 1
    29   18   41 1
    30   19   20 1
    31   19   21 1
    32   19   42 1
    33   20   43 1
    34   21   22 1
    35   21   44 1
    36   22   23 ar
    37   22   31 ar
    38   23   24 ar
    39   23   45 1
    40   24   25 ar
    41   24   49 1
    42   25   26 ar
    43   25   31 ar
    44   26   27 1
    45   26   28 ar
    46   27   46 1
    47   27   47 1
    48   28   29 ar
    49   29   30 ar
    50   29   48 1
    51   30   31 ar
@<TRIPOS>SUBSTRUCTURE
     1 ACP         1 GROUP 0 A     ****
@<TRIPOS>MOLECULE
[[5-(6-amino-7,8-dihydropurin-8-ylium-9-yl)-3,4-dihydroxy-tetrahydrofuran-2-yl]methoxy-hydroxy-phosphoryl]oxy-(phosphonomethyl)phosphinate
   49    51     1     0     0
SMALL
USER_CHARGES

@<TRIPOS>ATOM
      1 PG          1.3145    1.5196   -5.8865 P.3       1 ACP         1.6362
      2 O1G         2.2281    2.3885   -5.0754 O.2       1 ACP        -0.8691
      3 O2G         0.0521    0.9028   -5.0891 O.3       1 ACP        -0.8016
      4 O3G         0.6425    2.2302   -7.1722 O.3       1 ACP        -0.8016
      5 PB          2.9157   -1.2385   -5.5514 P.3       1 ACP         1.4874
      6 O1B         4.0158   -0.5631   -4.7659 O.co2     1 ACP        -0.8240
      7 O2B         3.1771   -2.4304   -6.4428 O.co2     1 ACP        -0.8240
      8 C3B         2.1115    0.0601   -6.5946 C.3       1 ACP        -0.6510
      9 PA          1.5750   -2.4621   -3.2281 P.3       1 ACP         1.7966
     10 O1A         1.9285   -3.9069   -3.4315 O.2       1 ACP        -0.8436
     11 O2A         0.0702   -2.2121   -2.6893 O.3       1 ACP        -0.8190
     12 O3A         1.6570   -1.5553   -4.5648 O.3       1 ACP        -0.7947
     13 O5'         2.5233   -1.6622   -2.1894 O.3       1 ACP        -0.5846
     14 C5'         2.2816   -0.2918   -1.9206 C.3       1 ACP         0.2005
     15 C4'         2.7248    0.0226   -0.4980 C.3       1 ACP         0.0711
     16 O4'         2.4697    1.4219   -0.2462 O.3       1 ACP        -0.4064
     17 C3'         1.9404   -0.7419    0.5596 C.3       1 ACP         0.0975
     18 O3'         2.7418   -0.8086    1.7389 O.3       1 ACP        -0.5957
     19 C2'         0.7477    0.1630    0.7858 C.3       1 ACP         0.1195
     20 O2'         0.1373   -0.0577    2.0407 O.3       1 ACP        -0.5845
     21 C1'         1.3733    1.5427    0.6747 C.3       1 ACP         0.4064
     22 N9          0.4520    2.5240    0.1767 N.pl3     1 ACP        -0.5630
     23 C8          0.1928    2.8484   -1.0815 C.ar      1 ACP         0.2808
     24 N7         -0.7248    3.8048   -1.2110 N.pl3     1 ACP        -0.5040
     25 C5         -1.0765    4.1129    0.0571 C.ar      1 ACP        -0.2807
     26 C6         -1.9614    5.0063    0.5851 C.ar      1 ACP         0.7712
     27 N6         -2.7145    5.8254   -0.2810 N.pl3     1 ACP        -0.9461
     28 N1         -2.1199    5.1113    1.9228 N.ar      1 ACP        -0.7457
     29 C2         -1.3522    4.2822    2.6839 C.ar      1 ACP         0.7201
     30 N3         -0.4501    3.3660    2.2638 N.ar      1 ACP        -0.6849
     31 C4         -0.3487    3.3198    0.9322 C.ar      1 ACP         0.6369
     32 HOG2        0.2159    0.3230   -4.3150 H         1 ACP         0.4781
     33 HOG3        0.0740    3.0181   -7.0368 H         1 ACP         0.4781
     34 H3B1        1.3551   -0.4600   -7.1932 H         1 ACP         0.1236
     35 H3B2        2.8831    0.4097   -7.2899 H         1 ACP         0.1236
     36 HOA2       -0.1963   -2.6013   -1.8292 H         1 ACP         0.4716
     37 H5'1        2.8428    0.3150   -2.6387 H         1 ACP         0.0529
     38 H5'2        1.2124   -0.0896   -2.0417 H         1 ACP         0.0529
     39 H4'         3.8049   -0.1388   -0.4009 H         1 ACP         0.1213
     40 H3'         1.6783   -1.7629    0.2715 H         1 ACP         0.0524
     41 HO3'        2.2232   -1.2979    2.3953 H         1 ACP         0.4707
     42 H2'        -0.0011    0.0027    0.0003 H         1 ACP         0.0774
     43 HO2'       -0.6141    0.5574    2.1082 H         1 ACP         0.4561
     44 H1'         1.7826    1.9024    1.6451 H         1 ACP         0.1559
     45 H8          0.6728    2.3873   -1.9272 H         1 ACP         0.2754
     46 HN61       -2.5537    5.7714   -1.2667 H         1 ACP         0.4584
     47 HN62       -3.3283    6.5126    0.1081 H         1 ACP         0.4584
     48 H2         -1.4818    4.3694    3.7565 H         1 ACP         0.0892
     49 H49        -1.0701    4.2005   -2.0743 H         1 ACP         0.5039
@<TRIPOS>BOND
     1    1    2 2
     2    1    3 1
     3    1    4 1
     4    1    8 1
     5    3   32 1
     6    4   33 1
     7    5    6 2
     8    5    7 1
     9    5    8 1
    10    5   12 1
    11    8   34 1
    12    8   35 1
    13    9   10 2
    14    9   11 1
    15    9   12 1
    16    9   13 1
    17   11   36 1
    18   13   14 1
    19   14   15 1
    20   14   37 1
    21   14   38 1
    22   15   16 1
    23   15   17 1
    24   15   39 1
    25   16   21 1
    26   17   18 1
    27   17   19 1
    28   17   40 1
    29   18   41 1
    30   19   20 1
    31   19   21 1
    32   19   42 1
    33   20   43 1
    34   21   22 1
    35   21   44 1
    36   22   23 ar
    37   22   31 ar
    38   23   24 ar
    39   23   45 1
    40   24   25 ar
    41   24   49 1
    42   25   26 ar
    43   25   31 ar
    44   26   27 1
    45   26   28 ar
    46   27   46 1
    47   27   47 1
    48   28   29 ar
    49   29   30 ar
    50   29   48 1
    51   30   31 ar
@<TRIPOS>SUBSTRUCTURE
     1 ACP         1 GROUP 0 A     ****
@<TRIPOS>MOLECULE
[[5-(6-amino-7,8-dihydropurin-8-ylium-9-yl)-3,4-dihydroxy-tetrahydrofuran-2-yl]methoxy-hydroxy-phosphoryl]oxy-(phosphonomethyl)phosphinate
   49    51     1     0     0
SMALL
USER_CHARGES

@<TRIPOS>ATOM
      1 PG          1.7380    1.3523   -6.5217 P.3       1 ACP         1.6362
      2 O1G         2.2119    1.6803   -5.1377 O.2       1 ACP        -0.8691
      3 O2G         0.2081    1.7566   -6.8470 O.3       1 ACP        -0.8016
      4 O3G         2.5759    2.0365   -7.7216 O.3       1 ACP        -0.8016
      5 PB          0.8556   -1.6824   -5.9789 P.3       1 ACP         1.4874
      6 O1B         1.1540   -3.0226   -6.6100 O.co2     1 ACP        -0.8240
      7 O2B        -0.5548   -1.1658   -5.8137 O.co2     1 ACP        -0.8240
      8 C3B         1.7984   -0.4070   -6.9308 C.3       1 ACP        -0.6510
      9 PA          1.5750   -2.4621   -3.2281 P.3       1 ACP         1.7966
     10 O1A         1.9285   -3.9069   -3.4315 O.2       1 ACP        -0.8436
     11 O2A         0.0702   -2.2121   -2.6893 O.3       1 ACP        -0.8190
     12 O3A         1.6570   -1.5553   -4.5648 O.3       1 ACP        -0.7947
     13 O5'         2.5233   -1.6622   -2.1894 O.3       1 ACP        -0.5846
     14 C5'         2.2816   -0.2918   -1.9206 C.3       1 ACP         0.2005
     15 C4'         2.7248    0.0226   -0.4980 C.3       1 ACP         0.0711
     16 O4'         2.4697    1.4219   -0.2462 O.3       1 ACP        -0.4064
     17 C3'         1.9404   -0.7419    0.5596 C.3       1 ACP         0.0975
     18 O3'         2.7418   -0.8086    1.7389 O.3       1 ACP        -0.5957
     19 C2'         0.7477    0.1630    0.7858 C.3       1 ACP         0.1195
     20 O2'         0.1373   -0.0577    2.0407 O.3       1 ACP        -0.5845
     21 C1'         1.3733    1.5427    0.6747 C.3       1 ACP         0.4064
     22 N9          0.4520    2.5240    0.1767 N.pl3     1 ACP        -0.5630
     23 C8          0.1928    2.8484   -1.0815 C.ar      1 ACP         0.2808
     24 N7         -0.7248    3.8048   -1.2110 N.pl3     1 ACP        -0.5040
     25 C5         -1.0765    4.1129    0.0571 C.ar      1 ACP        -0.2807
     26 C6         -1.9614    5.0063    0.5851 C.ar      1 ACP         0.7712
     27 N6         -2.7145    5.8254   -0.2810 N.pl3     1 ACP        -0.9461
     28 N1         -2.1199    5.1113    1.9228 N.ar      1 ACP        -0.7457
     29 C2         -1.3522    4.2822    2.6839 C.ar      1 ACP         0.7201
     30 N3         -0.4501    3.3660    2.2638 N.ar      1 ACP        -0.6849
     31 C4         -0.3487    3.3198    0.9322 C.ar      1 ACP         0.6369
     32 HOG2       -0.1551    1.5652   -7.7379 H         1 ACP         0.4781
     33 HOG3        2.6229    3.0151   -7.7708 H         1 ACP         0.4781
     34 H3B1        1.4718   -0.5059   -7.9722 H         1 ACP         0.1236
     35 H3B2        2.8486   -0.7187   -6.8951 H         1 ACP         0.1236
     36 HOA2       -0.1963   -2.6013   -1.8292 H         1 ACP         0.4716
     37 H5'1        2.8428    0.3150   -2.6387 H         1 ACP         0.0529
     38 H5'2        1.2124   -0.0896   -2.0417 H         1 ACP         0.0529
     39 H4'         3.8049   -0.1388   -0.4009 H         1 ACP         0.1213
     40 H3'         1.6783   -1.7629    0.2715 H         1 ACP         0.0524
     41 HO3'        2.2232   -1.2979    2.3953 H         1 ACP         0.4707
     42 H2'        -0.0011    0.0027    0.0003 H         1 ACP         0.0774
     43 HO2'       -0.6141    0.5574    2.1082 H         1 ACP         0.4561
     44 H1'         1.7826    1.9024    1.6451 H         1 ACP         0.1559
     45 H8          0.6728    2.3873   -1.9272 H         1 ACP         0.2754
     46 HN61       -2.5537    5.7714   -1.2667 H         1 ACP         0.4584
     47 HN62       -3.3283    6.5126    0.1081 H         1 ACP         0.4584
     48 H2         -1.4818    4.3694    3.7565 H         1 ACP         0.0892
     49 H49        -1.0701    4.2005   -2.0743 H         1 ACP         0.5039
@<TRIPOS>BOND
     1    1    2 2
     2    1    3 1
     3    1    4 1
     4    1    8 1
     5    3   32 1
     6    4   33 1
     7    5    6 2
     8    5    7 1
     9    5    8 1
    10    5   12 1
    11    8   34 1
    12    8   35 1
    13    9   10 2
    14    9   11 1
    15    9   12 1
    16    9   13 1
    17   11   36 1
    18   13   14 1
    19   14   15 1
    20   14   37 1
    21   14   38 1
    22   15   16 1
    23   15   17 1
    24   15   39 1
    25   16   21 1
    26   17   18 1
    27   17   19 1
    28   17   40 1
    29   18   41 1
    30   19   20 1
    31   19   21 1
    32   19   42 1
    33   20   43 1
    34   21   22 1
    35   21   44 1
    36   22   23 ar
    37   22   31 ar
    38   23   24 ar
    39   23   45 1
    40   24   25 ar
    41   24   49 1
    42   25   26 ar
    43   25   31 ar
    44   26   27 1
    45   26   28 ar
    46   27   46 1
    47   27   47 1
    48   28   29 ar
    49   29   30 ar
    50   29   48 1
    51   30   31 ar
@<TRIPOS>SUBSTRUCTURE
     1 ACP         1 GROUP 0 A     ****
@<TRIPOS>MOLECULE
[[5-(6-amino-7,8-dihydropurin-8-ylium-9-yl)-3,4-dihydroxy-tetrahydrofuran-2-yl]methoxy-hydroxy-phosphoryl]oxy-(phosphonomethyl)phosphinate
   49    51     1     0     0
SMALL
USER_CHARGES

@<TRIPOS>ATOM
      1 PG          5.9312   -0.2756   -5.7913 P.3       1 ACP         1.6362
      2 O1G         5.9277   -0.3519   -4.2941 O.2       1 ACP        -0.8691
      3 O2G         6.7968    0.9329   -6.4241 O.3       1 ACP        -0.8016
      4 O3G         6.4942   -1.5855   -6.5509 O.3       1 ACP        -0.8016
      5 PB          2.9196   -1.2572   -6.2908 P.3       1 ACP         1.4874
      6 O1B         3.3896   -2.5824   -6.8445 O.co2     1 ACP        -0.8240
      7 O2B         1.6496   -0.5902   -6.7659 O.co2     1 ACP        -0.8240
      8 C3B         4.2969   -0.0454   -6.5278 C.3       1 ACP        -0.6510
      9 PA          2.1469   -2.2812   -3.6362 P.3       1 ACP         1.7966
     10 O1A         2.4486   -3.7424   -3.8027 O.2       1 ACP        -0.8436
     11 O2A         0.5931   -1.8902   -3.8605 O.3       1 ACP        -0.8190
     12 O3A         2.9361   -1.3107   -4.6613 O.3       1 ACP        -0.7947
     13 O5'         2.5233   -1.6622   -2.1894 O.3       1 ACP        -0.5846
     14 C5'         2.2816   -0.2918   -1.9206 C.3       1 ACP         0.2005
     15 C4'         2.7248    0.0226   -0.4980 C.3       1 ACP         0.0711
     16 O4'         2.4697    1.4219   -0.2462 O.3       1 ACP        -0.4064
     17 C3'         1.9404   -0.7419    0.5596 C.3       1 ACP         0.0975
     18 O3'         2.7418   -0.8086    1.7389 O.3       1 ACP        -0.5957
     19 C2'         0.7477    0.1630    0.7858 C.3       1 ACP         0.1195
     20 O2'         0.1373   -0.0577    2.0407 O.3       1 ACP        -0.5845
     21 C1'         1.3733    1.5427    0.6747 C.3       1 ACP         0.4064
     22 N9          0.4520    2.5240    0.1767 N.pl3     1 ACP        -0.5630
     23 C8          0.1928    2.8484   -1.0815 C.ar      1 ACP         0.2808
     24 N7         -0.7248    3.8048   -1.2110 N.pl3     1 ACP        -0.5040
     25 C5         -1.0765    4.1129    0.0571 C.ar      1 ACP        -0.2807
     26 C6         -1.9614    5.0063    0.5851 C.ar      1 ACP         0.7712
     27 N6         -2.7145    5.8254   -0.2810 N.pl3     1 ACP        -0.9461
     28 N1         -2.1199    5.1113    1.9228 N.ar      1 ACP        -0.7457
     29 C2         -1.3522    4.2822    2.6839 C.ar      1 ACP         0.7201
     30 N3         -0.4501    3.3660    2.2638 N.ar      1 ACP        -0.6849
     31 C4         -0.3487    3.3198    0.9322 C.ar      1 ACP         0.6369
     32 HOG2        7.7586    0.9776   -6.2368 H         1 ACP         0.4781
     33 HOG3        6.5201   -1.5920   -7.5315 H         1 ACP         0.4781
     34 H3B1        3.9159    0.9175   -6.1694 H         1 ACP         0.1236
     35 H3B2        4.4330    0.0489   -7.6112 H         1 ACP         0.1236
     36 HOA2       -0.0865   -2.2971   -3.2819 H         1 ACP         0.4716
     37 H5'1        2.8428    0.3150   -2.6387 H         1 ACP         0.0529
     38 H5'2        1.2124   -0.0896   -2.0417 H         1 ACP         0.0529
     39 H4'         3.8049   -0.1388   -0.4009 H         1 ACP         0.1213
     40 H3'         1.6783   -1.7629    0.2715 H         1 ACP         0.0524
     41 HO3'        2.2232   -1.2979    2.3953 H         1 ACP         0.4707
     42 H2'        -0.0011    0.0027    0.0003 H         1 ACP         0.0774
     43 HO2'       -0.6141    0.5574    2.1082 H         1 ACP         0.4561
     44 H1'         1.7826    1.9024    1.6451 H         1 ACP         0.1559
     45 H8          0.6728    2.3873   -1.9272 H         1 ACP         0.2754
     46 HN61       -2.5537    5.7714   -1.2667 H         1 ACP         0.4584
     47 HN62       -3.3283    6.5126    0.1081 H         1 ACP         0.4584
     48 H2         -1.4818    4.3694    3.7565 H         1 ACP         0.0892
     49 H49        -1.0701    4.2005   -2.0743 H         1 ACP         0.5039
@<TRIPOS>BOND
     1    1    2 2
     2    1    3 1
     3    1    4 1
     4    1    8 1
     5    3   32 1
     6    4   33 1
     7    5    6 2
     8    5    7 1
     9    5    8 1
    10    5   12 1
    11    8   34 1
    12    8   35 1
    13    9   10 2
    14    9   11 1
    15    9   12 1
    16    9   13 1
    17   11   36 1
    18   13   14 1
    19   14   15 1
    20   14   37 1
    21   14   38 1
    22   15   16 1
    23   15   17 1
    24   15   39 1
    25   16   21 1
    26   17   18 1
    27   17   19 1
    28   17   40 1
    29   18   41 1
    30   19   20 1
    31   19   21 1
    32   19   42 1
    33   20   43 1
    34   21   22 1
    35   21   44 1
    36   22   23 ar
    37   22   31 ar
    38   23   24 ar
    39   23   45 1
    40   24   25 ar
    41   24   49 1
    42   25   26 ar
    43   25   31 ar
    44   26   27 1
    45   26   28 ar
    46   27   46 1
    47   27   47 1
    48   28   29 ar
    49   29   30 ar
    50   29   48 1
    51   30   31 ar
@<TRIPOS>SUBSTRUCTURE
     1 ACP         1 GROUP 0 A     ****
@<TRIPOS>MOLECULE
[[5-(6-amino-7,8-dihydropurin-8-ylium-9-yl)-3,4-dihydroxy-tetrahydrofuran-2-yl]methoxy-hydroxy-phosphoryl]oxy-(phosphonomethyl)phosphinate
   49    51     1     0     0
SMALL
USER_CHARGES

@<TRIPOS>ATOM
      1 PG         -0.0253    3.5541   -4.7823 P.3       1 ACP         1.6362
      2 O1G         0.8219    3.4699   -3.5484 O.2       1 ACP        -0.8691
      3 O2G        -1.4467    4.3002   -4.6004 O.3       1 ACP        -0.8016
      4 O3G         0.6488    4.3194   -6.0352 O.3       1 ACP        -0.8016
      5 PB          0.7713    0.7225   -6.0591 P.3       1 ACP         1.4874
      6 O1B         1.5728    1.3852   -7.1555 O.co2     1 ACP        -0.8240
      7 O2B         0.0508   -0.5893   -6.2681 O.co2     1 ACP        -0.8240
      8 C3B        -0.4842    1.9511   -5.4798 C.3       1 ACP        -0.6510
      9 PA          3.0853   -0.0761   -4.4159 P.3       1 ACP         1.7966
     10 O1A         4.2171    0.4133   -5.2721 O.2       1 ACP        -0.8436
     11 O2A         2.7514   -1.6500   -4.5859 O.3       1 ACP        -0.8190
     12 O3A         1.6668    0.6474   -4.6987 O.3       1 ACP        -0.7947
     13 O5'         3.2874    0.1331   -2.8242 O.3       1 ACP        -0.5846
     14 C5'         2.2816   -0.2918   -1.9206 C.3       1 ACP         0.2005
     15 C4'         2.7248    0.0226   -0.4980 C.3       1 ACP         0.0711
     16 O4'         2.4697    1.4219   -0.2462 O.3       1 ACP        -0.4064
     17 C3'         1.9404   -0.7419    0.5596 C.3       1 ACP         0.0975
     18 O3'         2.7418   -0.8086    1.7389 O.3       1 ACP        -0.5957
     19 C2'         0.7477    0.1630    0.7858 C.3       1 ACP         0.1195
     20 O2'         0.1373   -0.0577    2.0407 O.3       1 ACP        -0.5845
     21 C1'         1.3733    1.5427    0.6747 C.3       1 ACP         0.4064
     22 N9          0.4520    2.5240    0.1767 N.pl3     1 ACP        -0.5630
     23 C8         -0.2172    2.5216   -0.9668 C.ar      1 ACP         0.2808
     24 N7         -1.0011    3.5855   -1.1321 N.pl3     1 ACP        -0.5040
     25 C5         -0.8184    4.3200   -0.0123 C.ar      1 ACP        -0.2807
     26 C6         -1.3349    5.5079    0.4144 C.ar      1 ACP         0.7712
     27 N6         -2.2567    6.1930   -0.4036 N.pl3     1 ACP        -0.9461
     28 N1         -0.9716    6.0291    1.6069 N.ar      1 ACP        -0.7457
     29 C2         -0.0765    5.3009    2.3312 C.ar      1 ACP         0.7201
     30 N3          0.4933    4.1191    2.0023 N.ar      1 ACP        -0.6849
     31 C4          0.0865    3.6675    0.8123 C.ar      1 ACP         0.6369
     32 HOG2       -1.4582    5.2360   -4.3069 H         1 ACP         0.4781
     33 HOG3        0.1402    4.4048   -6.8696 H         1 ACP         0.4781
     34 H3B1       -1.0866    1.4332   -4.7250 H         1 ACP         0.1236
     35 H3B2       -1.1404    2.1395   -6.3371 H         1 ACP         0.1236
     36 HOA2        3.4497   -2.3077   -4.3811 H         1 ACP         0.4716
     37 H5'1        1.3494    0.2322   -2.1552 H         1 ACP         0.0529
     38 H5'2        2.1260   -1.3686   -2.0435 H         1 ACP         0.0529
     39 H4'         3.8049   -0.1388   -0.4009 H         1 ACP         0.1213
     40 H3'         1.6783   -1.7629    0.2715 H         1 ACP         0.0524
     41 HO3'        2.2232   -1.2979    2.3953 H         1 ACP         0.4707
     42 H2'        -0.0011    0.0027    0.0003 H         1 ACP         0.0774
     43 HO2'       -0.6141    0.5574    2.1082 H         1 ACP         0.4561
     44 H1'         1.7826    1.9024    1.6451 H         1 ACP         0.1559
     45 H8         -0.1423    1.7373   -1.6999 H         1 ACP         0.2754
     46 HN61       -2.4811    5.8206   -1.3042 H         1 ACP         0.4584
     47 HN62       -2.5986    7.0863   -0.1113 H         1 ACP         0.4584
     48 H2          0.2128    5.7222    3.2871 H         1 ACP         0.0892
     49 H49        -1.5947    3.7835   -1.9255 H         1 ACP         0.5039
@<TRIPOS>BOND
     1    1    2 2
     2    1    3 1
     3    1    4 1
     4    1    8 1
     5    3   32 1
     6    4   33 1
     7    5    6 2
     8    5    7 1
     9    5    8 1
    10    5   12 1
    11    8   34 1
    12    8   35 1
    13    9   10 2
    14    9   11 1
    15    9   12 1
    16    9   13 1
    17   11   36 1
    18   13   14 1
    19   14   15 1
    20   14   37 1
    21   14   38 1
    22   15   16 1
    23   15   17 1
    24   15   39 1
    25   16   21 1
    26   17   18 1
    27   17   19 1
    28   17   40 1
    29   18   41 1
    30   19   20 1
    31   19   21 1
    32   19   42 1
    33   20   43 1
    34   21   22 1
    35   21   44 1
    36   22   23 ar
    37   22   31 ar
    38   23   24 ar
    39   23   45 1
    40   24   25 ar
    41   24   49 1
    42   25   26 ar
    43   25   31 ar
    44   26   27 1
    45   26   28 ar
    46   27   46 1
    47   27   47 1
    48   28   29 ar
    49   29   30 ar
    50   29   48 1
    51   30   31 ar
@<TRIPOS>SUBSTRUCTURE
     1 ACP         1 GROUP 0 A     ****
@<TRIPOS>MOLECULE
[[5-(6-amino-7,8-dihydropurin-8-ylium-9-yl)-3,4-dihydroxy-tetrahydrofuran-2-yl]methoxy-hydroxy-phosphoryl]oxy-(phosphonomethyl)phosphinate
   49    51     1     0     0
SMALL
USER_CHARGES

@<TRIPOS>ATOM
      1 PG         -2.2391    0.3958   -3.7259 P.3       1 ACP         1.6362
      2 O1G        -1.4221    0.1547   -2.4923 O.2       1 ACP        -0.8691
      3 O2G        -2.8138   -0.9294   -4.4495 O.3       1 ACP        -0.8016
      4 O3G        -3.5506    1.3162   -3.5199 O.3       1 ACP        -0.8016
      5 PB          0.1741    0.5396   -5.8327 P.3       1 ACP         1.4874
      6 O1B         0.6266    1.5194   -6.8905 O.co2     1 ACP        -0.8240
      7 O2B        -0.1104   -0.9108   -6.1468 O.co2     1 ACP        -0.8240
      8 C3B        -1.3497    1.2408   -5.0532 C.3       1 ACP        -0.6510
      9 PA          2.7557    0.3904   -4.4164 P.3       1 ACP         1.7966
     10 O1A         3.5959    1.2926   -5.2730 O.2       1 ACP        -0.8436
     11 O2A         2.9225   -1.1855   -4.7419 O.3       1 ACP        -0.8190
     12 O3A         1.1623    0.6387   -4.5396 O.3       1 ACP        -0.7947
     13 O5'         3.0190    0.5130   -2.8246 O.3       1 ACP        -0.5846
     14 C5'         2.2816   -0.2918   -1.9206 C.3       1 ACP         0.2005
     15 C4'         2.7248    0.0226   -0.4980 C.3       1 ACP         0.0711
     16 O4'         2.4697    1.4219   -0.2462 O.3       1 ACP        -0.4064
     17 C3'         1.9404   -0.7419    0.5596 C.3       1 ACP         0.0975
     18 O3'         2.7418   -0.8086    1.7389 O.3       1 ACP        -0.5957
     19 C2'         0.7477    0.1630    0.7858 C.3       1 ACP         0.1195
     20 O2'         0.1373   -0.0577    2.0407 O.3       1 ACP        -0.5845
     21 C1'         1.3733    1.5427    0.6747 C.3       1 ACP         0.4064
     22 N9          0.4520    2.5240    0.1767 N.pl3     1 ACP        -0.5630
     23 C8         -0.6854    2.9365    0.7168 C.ar      1 ACP         0.2808
     24 N7         -1.3118    3.8692    0.0018 N.pl3     1 ACP        -0.5040
     25 C5         -0.5159    4.0659   -1.0727 C.ar      1 ACP        -0.2807
     26 C6         -0.6068    4.8856   -2.1589 C.ar      1 ACP         0.7712
     27 N6         -1.7186    5.7437   -2.2844 N.pl3     1 ACP        -0.9461
     28 N1          0.3541    4.8807   -3.1087 N.ar      1 ACP        -0.7457
     29 C2          1.3913    4.0207   -2.9071 C.ar      1 ACP         0.7201
     30 N3          1.5770    3.1707   -1.8715 N.ar      1 ACP        -0.6849
     31 C4          0.5883    3.2318   -0.9747 C.ar      1 ACP         0.6369
     32 HOG2       -3.3553   -0.8308   -5.2614 H         1 ACP         0.4781
     33 HOG3       -4.2458    1.0199   -2.8944 H         1 ACP         0.4781
     34 H3B1       -2.0631    1.3940   -5.8708 H         1 ACP         0.1236
     35 H3B2       -1.0703    2.2340   -4.6835 H         1 ACP         0.1236
     36 HOA2        3.8079   -1.5976   -4.6497 H         1 ACP         0.4716
     37 H5'1        1.2149   -0.0786   -2.0446 H         1 ACP         0.0529
     38 H5'2        2.4640   -1.3459   -2.1539 H         1 ACP         0.0529
     39 H4'         3.8049   -0.1388   -0.4009 H         1 ACP         0.1213
     40 H3'         1.6783   -1.7629    0.2715 H         1 ACP         0.0524
     41 HO3'        2.2232   -1.2979    2.3953 H         1 ACP         0.4707
     42 H2'        -0.0011    0.0027    0.0003 H         1 ACP         0.0774
     43 HO2'       -0.1563   -0.9855    2.0596 H         1 ACP         0.4561
     44 H1'         1.7826    1.9024    1.6451 H         1 ACP         0.1559
     45 H8         -1.0749    2.5601    1.6468 H         1 ACP         0.2754
     46 HN61       -2.4460    5.7038   -1.5992 H         1 ACP         0.4584
     47 HN62       -1.8079    6.3099   -3.1040 H         1 ACP         0.4584
     48 H2          2.1601    4.0194   -3.6712 H         1 ACP         0.0892
     49 H49        -2.1877    4.3195    0.2279 H         1 ACP         0.5039
@<TRIPOS>BOND
     1    1    2 2
     2    1    3 1
     3    1    4 1
     4    1    8 1
     5    3   32 1
     6    4   33 1
     7    5    6 2
     8    5    7 1
     9    5    8 1
    10    5   12 1
    11    8   34 1
    12    8   35 1
    13    9   10 2
    14    9   11 1
    15    9   12 1
    16    9   13 1
    17   11   36 1
    18   13   14 1
    19   14   15 1
    20   14   37 1
    21   14   38 1
    22   15   16 1
    23   15   17 1
    24   15   39 1
    25   16   21 1
    26   17   18 1
    27   17   19 1
    28   17   40 1
    29   18   41 1
    30   19   20 1
    31   19   21 1
    32   19   42 1
    33   20   43 1
    34   21   22 1
    35   21   44 1
    36   22   23 ar
    37   22   31 ar
    38   23   24 ar
    39   23   45 1
    40   24   25 ar
    41   24   49 1
    42   25   26 ar
    43   25   31 ar
    44   26   27 1
    45   26   28 ar
    46   27   46 1
    47   27   47 1
    48   28   29 ar
    49   29   30 ar
    50   29   48 1
    51   30   31 ar
@<TRIPOS>SUBSTRUCTURE
     1 ACP         1 GROUP 0 A     ****
@<TRIPOS>MOLECULE
[[5-(6-amino-7,8-dihydropurin-8-ylium-9-yl)-3,4-dihydroxy-tetrahydrofuran-2-yl]methoxy-hydroxy-phosphoryl]oxy-(phosphonomethyl)phosphinate
   49    51     1     0     0
SMALL
USER_CHARGES

@<TRIPOS>ATOM
      1 PG          3.7555    0.2303   -7.7018 P.3       1 ACP         1.6362
      2 O1G         3.7674    1.5144   -8.4753 O.2       1 ACP        -0.8691
      3 O2G         2.2971   -0.4196   -7.4552 O.3       1 ACP        -0.8016
      4 O3G         4.6060   -0.9791   -8.3528 O.3       1 ACP        -0.8016
      5 PB          4.5355   -1.0840   -4.8827 P.3       1 ACP         1.4874
      6 O1B         5.1584   -0.5907   -3.5973 O.co2     1 ACP        -0.8240
      7 O2B         5.1110   -2.2419   -5.6645 O.co2     1 ACP        -0.8240
      8 C3B         4.4392    0.3607   -6.0338 C.3       1 ACP        -0.6510
      9 PA          2.1469   -2.2812   -3.6362 P.3       1 ACP         1.7966
     10 O1A         2.4486   -3.7424   -3.8027 O.2       1 ACP        -0.8436
     11 O2A         0.5931   -1.8902   -3.8605 O.3       1 ACP        -0.8190
     12 O3A         2.9361   -1.3107   -4.6613 O.3       1 ACP        -0.7947
     13 O5'         2.5233   -1.6622   -2.1894 O.3       1 ACP        -0.5846
     14 C5'         2.2816   -0.2918   -1.9206 C.3       1 ACP         0.2005
     15 C4'         2.7248    0.0226   -0.4980 C.3       1 ACP         0.0711
     16 O4'         2.4697    1.4219   -0.2462 O.3       1 ACP        -0.4064
     17 C3'         1.9404   -0.7419    0.5596 C.3       1 ACP         0.0975
     18 O3'         2.7418   -0.8086    1.7389 O.3       1 ACP        -0.5957
     19 C2'         0.7477    0.1630    0.7858 C.3       1 ACP         0.1195
     20 O2'         0.1373   -0.0577    2.0407 O.3       1 ACP        -0.5845
     21 C1'         1.3733    1.5427    0.6747 C.3       1 ACP         0.4064
     22 N9          0.4520    2.5240    0.1767 N.pl3     1 ACP        -0.5630
     23 C8          0.1928    2.8484   -1.0815 C.ar      1 ACP         0.2808
     24 N7         -0.7248    3.8048   -1.2110 N.pl3     1 ACP        -0.5040
     25 C5         -1.0765    4.1129    0.0571 C.ar      1 ACP        -0.2807
     26 C6         -1.9614    5.0063    0.5851 C.ar      1 ACP         0.7712
     27 N6         -2.7145    5.8254   -0.2810 N.pl3     1 ACP        -0.9461
     28 N1         -2.1199    5.1113    1.9228 N.ar      1 ACP        -0.7457
     29 C2         -1.3522    4.2822    2.6839 C.ar      1 ACP         0.7201
     30 N3         -0.4501    3.3660    2.2638 N.ar      1 ACP        -0.6849
     31 C4         -0.3487    3.3198    0.9322 C.ar      1 ACP         0.6369
     32 HOG2        2.2298   -1.2605   -6.9546 H         1 ACP         0.4781
     33 HOG3        4.3656   -1.3015   -9.2475 H         1 ACP         0.4781
     34 H3B1        5.4645    0.7338   -6.1354 H         1 ACP         0.1236
     35 H3B2        3.8702    1.1325   -5.5030 H         1 ACP         0.1236
     36 HOA2       -0.0865   -2.2971   -3.2819 H         1 ACP         0.4716
     37 H5'1        2.8428    0.3150   -2.6387 H         1 ACP         0.0529
     38 H5'2        1.2124   -0.0896   -2.0417 H         1 ACP         0.0529
     39 H4'         3.8049   -0.1388   -0.4009 H         1 ACP         0.1213
     40 H3'         1.6783   -1.7629    0.2715 H         1 ACP         0.0524
     41 HO3'        2.2232   -1.2979    2.3953 H         1 ACP         0.4707
     42 H2'        -0.0011    0.0027    0.0003 H         1 ACP         0.0774
     43 HO2'       -0.6141    0.5574    2.1082 H         1 ACP         0.4561
     44 H1'         1.7826    1.9024    1.6451 H         1 ACP         0.1559
     45 H8          0.6728    2.3873   -1.9272 H         1 ACP         0.2754
     46 HN61       -2.5537    5.7714   -1.2667 H         1 ACP         0.4584
     47 HN62       -3.3283    6.5126    0.1081 H         1 ACP         0.4584
     48 H2         -1.4818    4.3694    3.7565 H         1 ACP         0.0892
     49 H49        -1.0701    4.2005   -2.0743 H         1 ACP         0.5039
@<TRIPOS>BOND
     1    1    2 2
     2    1    3 1
     3    1    4 1
     4    1    8 1
     5    3   32 1
     6    4   33 1
     7    5    6 2
     8    5    7 1
     9    5    8 1
    10    5   12 1
    11    8   34 1
    12    8   35 1
    13    9   10 2
    14    9   11 1
    15    9   12 1
    16    9   13 1
    17   11   36 1
    18   13   14 1
    19   14   15 1
    20   14   37 1
    21   14   38 1
    22   15   16 1
    23   15   17 1
    24   15   39 1
    25   16   21 1
    26   17   18 1
    27   17   19 1
    28   17   40 1
    29   18   41 1
    30   19   20 1
    31   19   21 1
    32   19   42 1
    33   20   43 1
    34   21   22 1
    35   21   44 1
    36   22   23 ar
    37   22   31 ar
    38   23   24 ar
    39   23   45 1
    40   24   25 ar
    41   24   49 1
    42   25   26 ar
    43   25   31 ar
    44   26   27 1
    45   26   28 ar
    46   27   46 1
    47   27   47 1
    48   28   29 ar
    49   29   30 ar
    50   29   48 1
    51   30   31 ar
@<TRIPOS>SUBSTRUCTURE
     1 ACP         1 GROUP 0 A     ****
@<TRIPOS>MOLECULE
[[5-(6-amino-7,8-dihydropurin-8-ylium-9-yl)-3,4-dihydroxy-tetrahydrofuran-2-yl]methoxy-hydroxy-phosphoryl]oxy-(phosphonomethyl)phosphinate
   49    51     1     0     0
SMALL
USER_CHARGES

@<TRIPOS>ATOM
      1 PG         -1.2571   -1.2349   -4.4765 P.3       1 ACP         1.6362
      2 O1G        -0.4271   -2.3789   -3.9767 O.2       1 ACP        -0.8691
      3 O2G        -2.6564   -1.6431   -5.1733 O.3       1 ACP        -0.8016
      4 O3G        -1.6901   -0.1522   -3.3585 O.3       1 ACP        -0.8016
      5 PB          1.1419    0.6718   -5.4211 P.3       1 ACP         1.4874
      6 O1B         0.8969    1.6307   -4.2792 O.co2     1 ACP        -0.8240
      7 O2B         1.6693    1.1317   -6.7605 O.co2     1 ACP        -0.8240
      8 C3B        -0.4464   -0.2225   -5.7353 C.3       1 ACP        -0.6510
      9 PA          3.4946   -0.6448   -4.2278 P.3       1 ACP         1.7966
     10 O1A         4.5894   -0.1038   -5.1010 O.2       1 ACP        -0.8436
     11 O2A         3.6755   -2.1987   -3.8153 O.3       1 ACP        -0.8190
     12 O3A         2.0199   -0.5952   -4.8900 O.3       1 ACP        -0.7947
     13 O5'         3.2874    0.1331   -2.8242 O.3       1 ACP        -0.5846
     14 C5'         2.2816   -0.2918   -1.9206 C.3       1 ACP         0.2005
     15 C4'         2.7248    0.0226   -0.4980 C.3       1 ACP         0.0711
     16 O4'         2.4697    1.4219   -0.2462 O.3       1 ACP        -0.4064
     17 C3'         1.9404   -0.7419    0.5596 C.3       1 ACP         0.0975
     18 O3'         2.7418   -0.8086    1.7389 O.3       1 ACP        -0.5957
     19 C2'         0.7477    0.1630    0.7858 C.3       1 ACP         0.1195
     20 O2'         0.1373   -0.0577    2.0407 O.3       1 ACP        -0.5845
     21 C1'         1.3733    1.5427    0.6747 C.3       1 ACP         0.4064
     22 N9          0.4520    2.5240    0.1767 N.pl3     1 ACP        -0.5630
     23 C8          0.1928    2.8484   -1.0815 C.ar      1 ACP         0.2808
     24 N7         -0.7248    3.8048   -1.2110 N.pl3     1 ACP        -0.5040
     25 C5         -1.0765    4.1129    0.0571 C.ar      1 ACP        -0.2807
     26 C6         -1.9614    5.0063    0.5851 C.ar      1 ACP         0.7712
     27 N6         -2.7145    5.8254   -0.2810 N.pl3     1 ACP        -0.9461
     28 N1         -2.1199    5.1113    1.9228 N.ar      1 ACP        -0.7457
     29 C2         -1.3522    4.2822    2.6839 C.ar      1 ACP         0.7201
     30 N3         -0.4501    3.3660    2.2638 N.ar      1 ACP        -0.6849
     31 C4         -0.3487    3.3198    0.9322 C.ar      1 ACP         0.6369
     32 HOG2       -3.2400   -0.9344   -5.5187 H         1 ACP         0.4781
     33 HOG3       -2.2275   -0.4482   -2.5931 H         1 ACP         0.4781
     34 H3B1       -0.2611   -0.8714   -6.5988 H         1 ACP         0.1236
     35 H3B2       -1.1639    0.5405   -6.0581 H         1 ACP         0.1236
     36 HOA2        4.4752   -2.4663   -3.3143 H         1 ACP         0.4716
     37 H5'1        1.3494    0.2322   -2.1552 H         1 ACP         0.0529
     38 H5'2        2.1260   -1.3686   -2.0435 H         1 ACP         0.0529
     39 H4'         3.8049   -0.1388   -0.4009 H         1 ACP         0.1213
     40 H3'         1.6783   -1.7629    0.2715 H         1 ACP         0.0524
     41 HO3'        2.2232   -1.2979    2.3953 H         1 ACP         0.4707
     42 H2'        -0.0011    0.0027    0.0003 H         1 ACP         0.0774
     43 HO2'       -0.6141    0.5574    2.1082 H         1 ACP         0.4561
     44 H1'         1.7826    1.9024    1.6451 H         1 ACP         0.1559
     45 H8          0.6728    2.3873   -1.9272 H         1 ACP         0.2754
     46 HN61       -2.5537    5.7714   -1.2667 H         1 ACP         0.4584
     47 HN62       -3.3283    6.5126    0.1081 H         1 ACP         0.4584
     48 H2         -1.4818    4.3694    3.7565 H         1 ACP         0.0892
     49 H49        -1.0701    4.2005   -2.0743 H         1 ACP         0.5039
@<TRIPOS>BOND
     1    1    2 2
     2    1    3 1
     3    1    4 1
     4    1    8 1
     5    3   32 1
     6    4   33 1
     7    5    6 2
     8    5    7 1
     9    5    8 1
    10    5   12 1
    11    8   34 1
    12    8   35 1
    13    9   10 2
    14    9   11 1
    15    9   12 1
    16    9   13 1
    17   11   36 1
    18   13   14 1
    19   14   15 1
    20   14   37 1
    21   14   38 1
    22   15   16 1
    23   15   17 1
    24   15   39 1
    25   16   21 1
    26   17   18 1
    27   17   19 1
    28   17   40 1
    29   18   41 1
    30   19   20 1
    31   19   21 1
    32   19   42 1
    33   20   43 1
    34   21   22 1
    35   21   44 1
    36   22   23 ar
    37   22   31 ar
    38   23   24 ar
    39   23   45 1
    40   24   25 ar
    41   24   49 1
    42   25   26 ar
    43   25   31 ar
    44   26   27 1
    45   26   28 ar
    46   27   46 1
    47   27   47 1
    48   28   29 ar
    49   29   30 ar
    50   29   48 1
    51   30   31 ar
@<TRIPOS>SUBSTRUCTURE
     1 ACP         1 GROUP 0 A     ****
@<TRIPOS>MOLECULE
[[5-(6-amino-7,8-dihydropurin-8-ylium-9-yl)-3,4-dihydroxy-tetrahydrofuran-2-yl]methoxy-hydroxy-phosphoryl]oxy-(phosphonomethyl)phosphinate
   49    51     1     0     0
SMALL
USER_CHARGES

@<TRIPOS>ATOM
      1 PG         -4.5953   -5.4470   -1.1536 P.3       1 ACP         1.6362
      2 O1G        -3.1672   -5.0016   -1.2503 O.2       1 ACP        -0.8691
      3 O2G        -5.6519   -4.5891   -2.0240 O.3       1 ACP        -0.8016
      4 O3G        -4.8781   -6.9717   -1.6066 O.3       1 ACP        -0.8016
      5 PB         -4.5702   -6.3463    1.9243 P.3       1 ACP         1.4874
      6 O1B        -4.6503   -7.8083    1.5504 O.co2     1 ACP        -0.8240
      7 O2B        -5.1837   -5.8047    3.1946 O.co2     1 ACP        -0.8240
      8 C3B        -5.2831   -5.3814    0.5164 C.3       1 ACP        -0.6510
      9 PA         -1.6900   -6.3397    2.5546 P.3       1 ACP         1.7966
     10 O1A        -1.3519   -7.7847    2.3275 O.2       1 ACP        -0.8436
     11 O2A        -1.9584   -5.9518    4.1021 O.3       1 ACP        -0.8190
     12 O3A        -3.0271   -5.8351    1.7975 O.3       1 ACP        -0.7947
     13 O5'        -0.5702   -5.2849    2.0531 O.3       1 ACP        -0.5846
     14 C5'        -0.7840   -3.8935    2.2172 C.3       1 ACP         0.2005
     15 C4'        -0.0724   -3.1466    1.1027 C.3       1 ACP         0.0711
     16 O4'        -0.8674   -3.1929   -0.0945 O.3       1 ACP        -0.4064
     17 C3'         0.1338   -1.6715    1.4027 C.3       1 ACP         0.0975
     18 O3'         1.2893   -1.4445    2.1808 O.3       1 ACP        -0.5957
     19 C2'         0.2158   -1.0724    0.0128 C.3       1 ACP         0.1195
     20 O2'         1.5141   -1.2448   -0.5513 O.3       1 ACP        -0.5845
     21 C1'        -0.7897   -1.9176   -0.7583 C.3       1 ACP         0.4064
     22 N9         -2.1040   -1.3333   -0.7704 N.pl3     1 ACP        -0.5630
     23 C8         -3.0822   -1.4850    0.1102 C.ar      1 ACP         0.2808
     24 N7         -4.1844   -0.7999   -0.1888 N.pl3     1 ACP        -0.5040
     25 C5         -3.8875   -0.1651   -1.3445 C.ar      1 ACP        -0.2807
     26 C6         -4.5941    0.6799   -2.1486 C.ar      1 ACP         0.7712
     27 N6         -5.9138    1.0274   -1.7939 N.pl3     1 ACP        -0.9461
     28 N1         -4.0421    1.1824   -3.2748 N.ar      1 ACP        -0.7457
     29 C2         -2.7637    0.7937   -3.5405 C.ar      1 ACP         0.7201
     30 N3         -1.9788   -0.0343   -2.8140 N.ar      1 ACP        -0.6849
     31 C4         -2.5915   -0.4902   -1.7174 C.ar      1 ACP         0.6369
     32 HOG2       -5.5403   -4.5440   -2.9975 H         1 ACP         0.4781
     33 HOG3       -5.7950   -7.3179   -1.5643 H         1 ACP         0.4781
     34 H3B1       -5.2640   -4.3316    0.8305 H         1 ACP         0.1236
     35 H3B2       -6.3369   -5.6756    0.4516 H         1 ACP         0.1236
     36 HOA2       -1.2411   -6.0897    4.7568 H         1 ACP         0.4716
     37 H5'1       -1.8600   -3.6935    2.1849 H         1 ACP         0.0529
     38 H5'2       -0.3935   -3.5870    3.1930 H         1 ACP         0.0529
     39 H4'         0.8886   -3.6448    0.8780 H         1 ACP         0.1213
     40 H3'        -0.7374   -1.2358    1.9870 H         1 ACP         0.0524
     41 HO3'        1.3408   -0.4870    2.3219 H         1 ACP         0.4707
     42 H2'        -0.0384   -0.0310    0.0096 H         1 ACP         0.0774
     43 HO2'        2.1463   -0.7958    0.0370 H         1 ACP         0.4561
     44 H1'        -0.4769   -2.1002   -1.8093 H         1 ACP         0.1559
     45 H8         -3.0031   -2.1011    0.9891 H         1 ACP         0.2754
     46 HN61       -6.3271    0.6117   -0.9836 H         1 ACP         0.4584
     47 HN62       -6.4471    1.6092   -2.4083 H         1 ACP         0.4584
     48 H2         -2.3243    1.1986   -4.4449 H         1 ACP         0.0892
     49 H49        -5.0436   -0.7722    0.3425 H         1 ACP         0.5039
@<TRIPOS>BOND
     1    1    2 2
     2    1    3 1
     3    1    4 1
     4    1    8 1
     5    3   32 1
     6    4   33 1
     7    5    6 2
     8    5    7 1
     9    5    8 1
    10    5   12 1
    11    8   34 1
    12    8   35 1
    13    9   10 2
    14    9   11 1
    15    9   12 1
    16    9   13 1
    17   11   36 1
    18   13   14 1
    19   14   15 1
    20   14   37 1
    21   14   38 1
    22   15   16 1
    23   15   17 1
    24   15   39 1
    25   16   21 1
    26   17   18 1
    27   17   19 1
    28   17   40 1
    29   18   41 1
    30   19   20 1
    31   19   21 1
    32   19   42 1
    33   20   43 1
    34   21   22 1
    35   21   44 1
    36   22   23 ar
    37   22   31 ar
    38   23   24 ar
    39   23   45 1
    40   24   25 ar
    41   24   49 1
    42   25   26 ar
    43   25   31 ar
    44   26   27 1
    45   26   28 ar
    46   27   46 1
    47   27   47 1
    48   28   29 ar
    49   29   30 ar
    50   29   48 1
    51   30   31 ar
@<TRIPOS>SUBSTRUCTURE
     1 ACP         1 GROUP 0 A     ****
@<TRIPOS>MOLECULE
[[5-(6-amino-7,8-dihydropurin-8-ylium-9-yl)-3,4-dihydroxy-tetrahydrofuran-2-yl]methoxy-hydroxy-phosphoryl]oxy-(phosphonomethyl)phosphinate
   49    51     1     0     0
SMALL
USER_CHARGES

@<TRIPOS>ATOM
      1 PG          1.7380    1.3523   -6.5217 P.3       1 ACP         1.6362
      2 O1G         0.3677    1.9559   -6.5953 O.2       1 ACP        -0.8691
      3 O2G         2.8379    2.0013   -7.5112 O.3       1 ACP        -0.8016
      4 O3G         2.4465    1.4158   -5.0712 O.3       1 ACP        -0.8016
      5 PB          0.8556   -1.6824   -5.9789 P.3       1 ACP         1.4874
      6 O1B         1.1540   -3.0226   -6.6100 O.co2     1 ACP        -0.8240
      7 O2B        -0.5548   -1.1658   -5.8137 O.co2     1 ACP        -0.8240
      8 C3B         1.7984   -0.4070   -6.9308 C.3       1 ACP        -0.6510
      9 PA          1.5750   -2.4621   -3.2281 P.3       1 ACP         1.7966
     10 O1A         1.9285   -3.9069   -3.4315 O.2       1 ACP        -0.8436
     11 O2A         0.0702   -2.2121   -2.6893 O.3       1 ACP        -0.8190
     12 O3A         1.6570   -1.5553   -4.5648 O.3       1 ACP        -0.7947
     13 O5'         2.5233   -1.6622   -2.1894 O.3       1 ACP        -0.5846
     14 C5'         2.2816   -0.2918   -1.9206 C.3       1 ACP         0.2005
     15 C4'         2.7248    0.0226   -0.4980 C.3       1 ACP         0.0711
     16 O4'         2.4697    1.4219   -0.2462 O.3       1 ACP        -0.4064
     17 C3'         1.9404   -0.7419    0.5596 C.3       1 ACP         0.0975
     18 O3'         2.7418   -0.8086    1.7389 O.3       1 ACP        -0.5957
     19 C2'         0.7477    0.1630    0.7858 C.3       1 ACP         0.1195
     20 O2'         0.1373   -0.0577    2.0407 O.3       1 ACP        -0.5845
     21 C1'         1.3733    1.5427    0.6747 C.3       1 ACP         0.4064
     22 N9          0.4520    2.5240    0.1767 N.pl3     1 ACP        -0.5630
     23 C8          0.1928    2.8484   -1.0815 C.ar      1 ACP         0.2808
     24 N7         -0.7248    3.8048   -1.2110 N.pl3     1 ACP        -0.5040
     25 C5         -1.0765    4.1129    0.0571 C.ar      1 ACP        -0.2807
     26 C6         -1.9614    5.0063    0.5851 C.ar      1 ACP         0.7712
     27 N6         -2.7145    5.8254   -0.2810 N.pl3     1 ACP        -0.9461
     28 N1         -2.1199    5.1113    1.9228 N.ar      1 ACP        -0.7457
     29 C2         -1.3522    4.2822    2.6839 C.ar      1 ACP         0.7201
     30 N3         -0.4501    3.3660    2.2638 N.ar      1 ACP        -0.6849
     31 C4         -0.3487    3.3198    0.9322 C.ar      1 ACP         0.6369
     32 HOG2        3.0532    2.9542   -7.4232 H         1 ACP         0.4781
     33 HOG3        3.3445    1.0360   -4.9638 H         1 ACP         0.4781
     34 H3B1        1.4718   -0.5059   -7.9722 H         1 ACP         0.1236
     35 H3B2        2.8486   -0.7187   -6.8951 H         1 ACP         0.1236
     36 HOA2       -0.6855   -2.5235   -3.2316 H         1 ACP         0.4716
     37 H5'1        2.8428    0.3150   -2.6387 H         1 ACP         0.0529
     38 H5'2        1.2124   -0.0896   -2.0417 H         1 ACP         0.0529
     39 H4'         3.8049   -0.1388   -0.4009 H         1 ACP         0.1213
     40 H3'         1.6783   -1.7629    0.2715 H         1 ACP         0.0524
     41 HO3'        3.5554   -1.2733    1.4914 H         1 ACP         0.4707
     42 H2'        -0.0011    0.0027    0.0003 H         1 ACP         0.0774
     43 HO2'       -0.1563   -0.9855    2.0596 H         1 ACP         0.4561
     44 H1'         1.7826    1.9024    1.6451 H         1 ACP         0.1559
     45 H8          0.6728    2.3873   -1.9272 H         1 ACP         0.2754
     46 HN61       -2.5537    5.7714   -1.2667 H         1 ACP         0.4584
     47 HN62       -3.3283    6.5126    0.1081 H         1 ACP         0.4584
     48 H2         -1.4818    4.3694    3.7565 H         1 ACP         0.0892
     49 H49        -1.0701    4.2005   -2.0743 H         1 ACP         0.5039
@<TRIPOS>BOND
     1    1    2 2
     2    1    3 1
     3    1    4 1
     4    1    8 1
     5    3   32 1
     6    4   33 1
     7    5    6 2
     8    5    7 1
     9    5    8 1
    10    5   12 1
    11    8   34 1
    12    8   35 1
    13    9   10 2
    14    9   11 1
    15    9   12 1
    16    9   13 1
    17   11   36 1
    18   13   14 1
    19   14   15 1
    20   14   37 1
    21   14   38 1
    22   15   16 1
    23   15   17 1
    24   15   39 1
    25   16   21 1
    26   17   18 1
    27   17   19 1
    28   17   40 1
    29   18   41 1
    30   19   20 1
    31   19   21 1
    32   19   42 1
    33   20   43 1
    34   21   22 1
    35   21   44 1
    36   22   23 ar
    37   22   31 ar
    38   23   24 ar
    39   23   45 1
    40   24   25 ar
    41   24   49 1
    42   25   26 ar
    43   25   31 ar
    44   26   27 1
    45   26   28 ar
    46   27   46 1
    47   27   47 1
    48   28   29 ar
    49   29   30 ar
    50   29   48 1
    51   30   31 ar
@<TRIPOS>SUBSTRUCTURE
     1 ACP         1 GROUP 0 A     ****
@<TRIPOS>MOLECULE
[[5-(6-amino-7,8-dihydropurin-8-ylium-9-yl)-3,4-dihydroxy-tetrahydrofuran-2-yl]methoxy-hydroxy-phosphoryl]oxy-(phosphonomethyl)phosphinate
   49    51     1     0     0
SMALL
USER_CHARGES

@<TRIPOS>ATOM
      1 PG          6.0636    1.6907   -4.3567 P.3       1 ACP         1.6362
      2 O1G         5.4707    2.6167   -5.3757 O.2       1 ACP        -0.8691
      3 O2G         7.5273    2.1027   -3.8107 O.3       1 ACP        -0.8016
      4 O3G         5.1952    1.4961   -3.0085 O.3       1 ACP        -0.8016
      5 PB          4.8982   -1.0581   -5.5267 P.3       1 ACP         1.4874
      6 O1B         5.4808   -2.3930   -5.9293 O.co2     1 ACP        -0.8240
      7 O2B         4.0737   -0.2196   -6.4757 O.co2     1 ACP        -0.8240
      8 C3B         6.3000   -0.0035   -4.9402 C.3       1 ACP        -0.6510
      9 PA          2.8566   -2.1440   -3.6977 P.3       1 ACP         1.7966
     10 O1A         3.0940   -3.6176   -3.8586 O.2       1 ACP        -0.8436
     11 O2A         1.6428   -1.5611   -4.5945 O.3       1 ACP        -0.8190
     12 O3A         4.1138   -1.2120   -4.1056 O.3       1 ACP        -0.7947
     13 O5'         2.5233   -1.6622   -2.1894 O.3       1 ACP        -0.5846
     14 C5'         2.2816   -0.2918   -1.9206 C.3       1 ACP         0.2005
     15 C4'         2.7248    0.0226   -0.4980 C.3       1 ACP         0.0711
     16 O4'         2.4697    1.4219   -0.2462 O.3       1 ACP        -0.4064
     17 C3'         1.9404   -0.7419    0.5596 C.3       1 ACP         0.0975
     18 O3'         2.7418   -0.8086    1.7389 O.3       1 ACP        -0.5957
     19 C2'         0.7477    0.1630    0.7858 C.3       1 ACP         0.1195
     20 O2'         0.1373   -0.0577    2.0407 O.3       1 ACP        -0.5845
     21 C1'         1.3733    1.5427    0.6747 C.3       1 ACP         0.4064
     22 N9          0.4520    2.5240    0.1767 N.pl3     1 ACP        -0.5630
     23 C8          0.1928    2.8484   -1.0815 C.ar      1 ACP         0.2808
     24 N7         -0.7248    3.8048   -1.2110 N.pl3     1 ACP        -0.5040
     25 C5         -1.0765    4.1129    0.0571 C.ar      1 ACP        -0.2807
     26 C6         -1.9614    5.0063    0.5851 C.ar      1 ACP         0.7712
     27 N6         -2.7145    5.8254   -0.2810 N.pl3     1 ACP        -0.9461
     28 N1         -2.1199    5.1113    1.9228 N.ar      1 ACP        -0.7457
     29 C2         -1.3522    4.2822    2.6839 C.ar      1 ACP         0.7201
     30 N3         -0.4501    3.3660    2.2638 N.ar      1 ACP        -0.6849
     31 C4         -0.3487    3.3198    0.9322 C.ar      1 ACP         0.6369
     32 HOG2        7.6408    2.9666   -3.3602 H         1 ACP         0.4781
     33 HOG3        5.5346    0.9011   -2.3062 H         1 ACP         0.4781
     34 H3B1        7.0128    0.0398   -5.7714 H         1 ACP         0.1236
     35 H3B2        6.7844   -0.5660   -4.1339 H         1 ACP         0.1236
     36 HOA2        0.7398   -1.9201   -4.4610 H         1 ACP         0.4716
     37 H5'1        2.8428    0.3150   -2.6387 H         1 ACP         0.0529
     38 H5'2        1.2124   -0.0896   -2.0417 H         1 ACP         0.0529
     39 H4'         3.8049   -0.1388   -0.4009 H         1 ACP         0.1213
     40 H3'         1.6783   -1.7629    0.2715 H         1 ACP         0.0524
     41 HO3'        2.2232   -1.2979    2.3953 H         1 ACP         0.4707
     42 H2'        -0.0011    0.0027    0.0003 H         1 ACP         0.0774
     43 HO2'       -0.6141    0.5574    2.1082 H         1 ACP         0.4561
     44 H1'         1.7826    1.9024    1.6451 H         1 ACP         0.1559
     45 H8          0.6728    2.3873   -1.9272 H         1 ACP         0.2754
     46 HN61       -2.5537    5.7714   -1.2667 H         1 ACP         0.4584
     47 HN62       -3.3283    6.5126    0.1081 H         1 ACP         0.4584
     48 H2         -1.4818    4.3694    3.7565 H         1 ACP         0.0892
     49 H49        -1.0701    4.2005   -2.0743 H         1 ACP         0.5039
@<TRIPOS>BOND
     1    1    2 2
     2    1    3 1
     3    1    4 1
     4    1    8 1
     5    3   32 1
     6    4   33 1
     7    5    6 2
     8    5    7 1
     9    5    8 1
    10    5   12 1
    11    8   34 1
    12    8   35 1
    13    9   10 2
    14    9   11 1
    15    9   12 1
    16    9   13 1
    17   11   36 1
    18   13   14 1
    19   14   15 1
    20   14   37 1
    21   14   38 1
    22   15   16 1
    23   15   17 1
    24   15   39 1
    25   16   21 1
    26   17   18 1
    27   17   19 1
    28   17   40 1
    29   18   41 1
    30   19   20 1
    31   19   21 1
    32   19   42 1
    33   20   43 1
    34   21   22 1
    35   21   44 1
    36   22   23 ar
    37   22   31 ar
    38   23   24 ar
    39   23   45 1
    40   24   25 ar
    41   24   49 1
    42   25   26 ar
    43   25   31 ar
    44   26   27 1
    45   26   28 ar
    46   27   46 1
    47   27   47 1
    48   28   29 ar
    49   29   30 ar
    50   29   48 1
    51   30   31 ar
@<TRIPOS>SUBSTRUCTURE
     1 ACP         1 GROUP 0 A     ****
@<TRIPOS>MOLECULE
[[5-(6-amino-7,8-dihydropurin-8-ylium-9-yl)-3,4-dihydroxy-tetrahydrofuran-2-yl]methoxy-hydroxy-phosphoryl]oxy-(phosphonomethyl)phosphinate
   49    51     1     0     0
SMALL
USER_CHARGES

@<TRIPOS>ATOM
      1 PG          3.6000   -0.4354   -7.0726 P.3       1 ACP         1.6362
      2 O1G         4.1486   -1.6744   -7.7141 O.2       1 ACP        -0.8691
      3 O2G         4.0956   -0.1573   -5.5603 O.3       1 ACP        -0.8016
      4 O3G         3.9288    0.9469   -7.8413 O.3       1 ACP        -0.8016
      5 PB          0.8556   -1.6824   -5.9789 P.3       1 ACP         1.4874
      6 O1B         1.1540   -3.0226   -6.6100 O.co2     1 ACP        -0.8240
      7 O2B        -0.5548   -1.1658   -5.8137 O.co2     1 ACP        -0.8240
      8 C3B         1.7984   -0.4070   -6.9308 C.3       1 ACP        -0.6510
      9 PA          1.5750   -2.4621   -3.2281 P.3       1 ACP         1.7966
     10 O1A         1.9285   -3.9069   -3.4315 O.2       1 ACP        -0.8436
     11 O2A         0.0702   -2.2121   -2.6893 O.3       1 ACP        -0.8190
     12 O3A         1.6570   -1.5553   -4.5648 O.3       1 ACP        -0.7947
     13 O5'         2.5233   -1.6622   -2.1894 O.3       1 ACP        -0.5846
     14 C5'         2.2816   -0.2918   -1.9206 C.3       1 ACP         0.2005
     15 C4'         2.7248    0.0226   -0.4980 C.3       1 ACP         0.0711
     16 O4'         2.4697    1.4219   -0.2462 O.3       1 ACP        -0.4064
     17 C3'         1.9404   -0.7419    0.5596 C.3       1 ACP         0.0975
     18 O3'         2.7418   -0.8086    1.7389 O.3       1 ACP        -0.5957
     19 C2'         0.7477    0.1630    0.7858 C.3       1 ACP         0.1195
     20 O2'         0.1373   -0.0577    2.0407 O.3       1 ACP        -0.5845
     21 C1'         1.3733    1.5427    0.6747 C.3       1 ACP         0.4064
     22 N9          0.4520    2.5240    0.1767 N.pl3     1 ACP        -0.5630
     23 C8          0.1928    2.8484   -1.0815 C.ar      1 ACP         0.2808
     24 N7         -0.7248    3.8048   -1.2110 N.pl3     1 ACP        -0.5040
     25 C5         -1.0765    4.1129    0.0571 C.ar      1 ACP        -0.2807
     26 C6         -1.9614    5.0063    0.5851 C.ar      1 ACP         0.7712
     27 N6         -2.7145    5.8254   -0.2810 N.pl3     1 ACP        -0.9461
     28 N1         -2.1199    5.1113    1.9228 N.ar      1 ACP        -0.7457
     29 C2         -1.3522    4.2822    2.6839 C.ar      1 ACP         0.7201
     30 N3         -0.4501    3.3660    2.2638 N.ar      1 ACP        -0.6849
     31 C4         -0.3487    3.3198    0.9322 C.ar      1 ACP         0.6369
     32 HOG2        3.9020   -0.8232   -4.8666 H         1 ACP         0.4781
     33 HOG3        4.8656    1.2071   -7.9716 H         1 ACP         0.4781
     34 H3B1        1.5262    0.5592   -6.4912 H         1 ACP         0.1236
     35 H3B2        1.3868   -0.4226   -7.9464 H         1 ACP         0.1236
     36 HOA2       -0.1963   -2.6013   -1.8292 H         1 ACP         0.4716
     37 H5'1        2.8428    0.3150   -2.6387 H         1 ACP         0.0529
     38 H5'2        1.2124   -0.0896   -2.0417 H         1 ACP         0.0529
     39 H4'         3.8049   -0.1388   -0.4009 H         1 ACP         0.1213
     40 H3'         1.6783   -1.7629    0.2715 H         1 ACP         0.0524
     41 HO3'        2.2232   -1.2979    2.3953 H         1 ACP         0.4707
     42 H2'        -0.0011    0.0027    0.0003 H         1 ACP         0.0774
     43 HO2'       -0.6141    0.5574    2.1082 H         1 ACP         0.4561
     44 H1'         1.7826    1.9024    1.6451 H         1 ACP         0.1559
     45 H8          0.6728    2.3873   -1.9272 H         1 ACP         0.2754
     46 HN61       -2.5537    5.7714   -1.2667 H         1 ACP         0.4584
     47 HN62       -3.3283    6.5126    0.1081 H         1 ACP         0.4584
     48 H2         -1.4818    4.3694    3.7565 H         1 ACP         0.0892
     49 H49        -1.0701    4.2005   -2.0743 H         1 ACP         0.5039
@<TRIPOS>BOND
     1    1    2 2
     2    1    3 1
     3    1    4 1
     4    1    8 1
     5    3   32 1
     6    4   33 1
     7    5    6 2
     8    5    7 1
     9    5    8 1
    10    5   12 1
    11    8   34 1
    12    8   35 1
    13    9   10 2
    14    9   11 1
    15    9   12 1
    16    9   13 1
    17   11   36 1
    18   13   14 1
    19   14   15 1
    20   14   37 1
    21   14   38 1
    22   15   16 1
    23   15   17 1
    24   15   39 1
    25   16   21 1
    26   17   18 1
    27   17   19 1
    28   17   40 1
    29   18   41 1
    30   19   20 1
    31   19   21 1
    32   19   42 1
    33   20   43 1
    34   21   22 1
    35   21   44 1
    36   22   23 ar
    37   22   31 ar
    38   23   24 ar
    39   23   45 1
    40   24   25 ar
    41   24   49 1
    42   25   26 ar
    43   25   31 ar
    44   26   27 1
    45   26   28 ar
    46   27   46 1
    47   27   47 1
    48   28   29 ar
    49   29   30 ar
    50   29   48 1
    51   30   31 ar
@<TRIPOS>SUBSTRUCTURE
     1 ACP         1 GROUP 0 A     ****
@<TRIPOS>MOLECULE
[[5-(6-amino-7,8-dihydropurin-8-ylium-9-yl)-3,4-dihydroxy-tetrahydrofuran-2-yl]methoxy-hydroxy-phosphoryl]oxy-(phosphonomethyl)phosphinate
   49    51     1     0     0
SMALL
USER_CHARGES

@<TRIPOS>ATOM
      1 PG         -0.3857    1.3419   -6.2239 P.3       1 ACP         1.6362
      2 O1G         0.2909    2.0770   -7.3416 O.2       1 ACP        -0.8691
      3 O2G         0.1313    1.7074   -4.7376 O.3       1 ACP        -0.8016
      4 O3G        -1.9859    1.5430   -6.1305 O.3       1 ACP        -0.8016
      5 PB          1.4486   -1.2882   -6.2508 P.3       1 ACP         1.4874
      6 O1B         2.2353   -0.7889   -7.4406 O.co2     1 ACP        -0.8240
      7 O2B         1.2008   -2.7590   -6.0085 O.co2     1 ACP        -0.8240
      8 C3B        -0.2020   -0.4546   -6.2971 C.3       1 ACP        -0.6510
      9 PA          3.4946   -0.6448   -4.2278 P.3       1 ACP         1.7966
     10 O1A         4.5894   -0.1038   -5.1010 O.2       1 ACP        -0.8436
     11 O2A         3.6755   -2.1987   -3.8153 O.3       1 ACP        -0.8190
     12 O3A         2.0199   -0.5952   -4.8900 O.3       1 ACP        -0.7947
     13 O5'         3.2874    0.1331   -2.8242 O.3       1 ACP        -0.5846
     14 C5'         2.2816   -0.2918   -1.9206 C.3       1 ACP         0.2005
     15 C4'         2.7248    0.0226   -0.4980 C.3       1 ACP         0.0711
     16 O4'         2.4697    1.4219   -0.2462 O.3       1 ACP        -0.4064
     17 C3'         1.9404   -0.7419    0.5596 C.3       1 ACP         0.0975
     18 O3'         2.7418   -0.8086    1.7389 O.3       1 ACP        -0.5957
     19 C2'         0.7477    0.1630    0.7858 C.3       1 ACP         0.1195
     20 O2'         0.1373   -0.0577    2.0407 O.3       1 ACP        -0.5845
     21 C1'         1.3733    1.5427    0.6747 C.3       1 ACP         0.4064
     22 N9          0.4520    2.5240    0.1767 N.pl3     1 ACP        -0.5630
     23 C8          0.1928    2.8484   -1.0815 C.ar      1 ACP         0.2808
     24 N7         -0.7248    3.8048   -1.2110 N.pl3     1 ACP        -0.5040
     25 C5         -1.0765    4.1129    0.0571 C.ar      1 ACP        -0.2807
     26 C6         -1.9614    5.0063    0.5851 C.ar      1 ACP         0.7712
     27 N6         -2.7145    5.8254   -0.2810 N.pl3     1 ACP        -0.9461
     28 N1         -2.1199    5.1113    1.9228 N.ar      1 ACP        -0.7457
     29 C2         -1.3522    4.2822    2.6839 C.ar      1 ACP         0.7201
     30 N3         -0.4501    3.3660    2.2638 N.ar      1 ACP        -0.6849
     31 C4         -0.3487    3.3198    0.9322 C.ar      1 ACP         0.6369
     32 HOG2        1.0737    1.5561   -4.5114 H         1 ACP         0.4781
     33 HOG3       -2.3446    2.4466   -5.9995 H         1 ACP         0.4781
     34 H3B1       -0.7729   -0.8701   -5.4591 H         1 ACP         0.1236
     35 H3B2       -0.6887   -0.7993   -7.2166 H         1 ACP         0.1236
     36 HOA2        3.7129   -2.8761   -4.5238 H         1 ACP         0.4716
     37 H5'1        1.3494    0.2322   -2.1552 H         1 ACP         0.0529
     38 H5'2        2.1260   -1.3686   -2.0435 H         1 ACP         0.0529
     39 H4'         3.8049   -0.1388   -0.4009 H         1 ACP         0.1213
     40 H3'         1.6783   -1.7629    0.2715 H         1 ACP         0.0524
     41 HO3'        2.2232   -1.2979    2.3953 H         1 ACP         0.4707
     42 H2'        -0.0011    0.0027    0.0003 H         1 ACP         0.0774
     43 HO2'       -0.6141    0.5574    2.1082 H         1 ACP         0.4561
     44 H1'         1.7826    1.9024    1.6451 H         1 ACP         0.1559
     45 H8          0.6728    2.3873   -1.9272 H         1 ACP         0.2754
     46 HN61       -2.5537    5.7714   -1.2667 H         1 ACP         0.4584
     47 HN62       -3.3283    6.5126    0.1081 H         1 ACP         0.4584
     48 H2         -1.4818    4.3694    3.7565 H         1 ACP         0.0892
     49 H49        -1.0701    4.2005   -2.0743 H         1 ACP         0.5039
@<TRIPOS>BOND
     1    1    2 2
     2    1    3 1
     3    1    4 1
     4    1    8 1
     5    3   32 1
     6    4   33 1
     7    5    6 2
     8    5    7 1
     9    5    8 1
    10    5   12 1
    11    8   34 1
    12    8   35 1
    13    9   10 2
    14    9   11 1
    15    9   12 1
    16    9   13 1
    17   11   36 1
    18   13   14 1
    19   14   15 1
    20   14   37 1
    21   14   38 1
    22   15   16 1
    23   15   17 1
    24   15   39 1
    25   16   21 1
    26   17   18 1
    27   17   19 1
    28   17   40 1
    29   18   41 1
    30   19   20 1
    31   19   21 1
    32   19   42 1
    33   20   43 1
    34   21   22 1
    35   21   44 1
    36   22   23 ar
    37   22   31 ar
    38   23   24 ar
    39   23   45 1
    40   24   25 ar
    41   24   49 1
    42   25   26 ar
    43   25   31 ar
    44   26   27 1
    45   26   28 ar
    46   27   46 1
    47   27   47 1
    48   28   29 ar
    49   29   30 ar
    50   29   48 1
    51   30   31 ar
@<TRIPOS>SUBSTRUCTURE
     1 ACP         1 GROUP 0 A     ****
@<TRIPOS>MOLECULE
[[5-(6-amino-7,8-dihydropurin-8-ylium-9-yl)-3,4-dihydroxy-tetrahydrofuran-2-yl]methoxy-hydroxy-phosphoryl]oxy-(phosphonomethyl)phosphinate
   49    51     1     0     0
SMALL
USER_CHARGES

@<TRIPOS>ATOM
      1 PG         -1.3966   -1.6692   -4.8773 P.3       1 ACP         1.6362
      2 O1G        -0.9972   -1.3345   -3.4717 O.2       1 ACP        -0.8691
      3 O2G        -1.3073   -3.2333   -5.2720 O.3       1 ACP        -0.8016
      4 O3G        -2.9047   -1.2590   -5.2859 O.3       1 ACP        -0.8016
      5 PB          1.4325   -1.1192   -6.2832 P.3       1 ACP         1.4874
      6 O1B         1.9145   -0.2900   -7.4509 O.co2     1 ACP        -0.8240
      7 O2B         1.6841   -2.6065   -6.1927 O.co2     1 ACP        -0.8240
      8 C3B        -0.3943   -0.8630   -6.1469 C.3       1 ACP        -0.6510
      9 PA          3.3384   -0.0297   -4.3151 P.3       1 ACP         1.7966
     10 O1A         4.1258    0.9106   -5.1809 O.2       1 ACP        -0.8436
     11 O2A         4.0360   -1.4716   -4.0883 O.3       1 ACP        -0.8190
     12 O3A         1.8718   -0.4013   -4.8868 O.3       1 ACP        -0.7947
     13 O5'         3.0190    0.5130   -2.8246 O.3       1 ACP        -0.5846
     14 C5'         2.2816   -0.2918   -1.9206 C.3       1 ACP         0.2005
     15 C4'         2.7248    0.0226   -0.4980 C.3       1 ACP         0.0711
     16 O4'         2.4697    1.4219   -0.2462 O.3       1 ACP        -0.4064
     17 C3'         1.9404   -0.7419    0.5596 C.3       1 ACP         0.0975
     18 O3'         2.7418   -0.8086    1.7389 O.3       1 ACP        -0.5957
     19 C2'         0.7477    0.1630    0.7858 C.3       1 ACP         0.1195
     20 O2'         0.1373   -0.0577    2.0407 O.3       1 ACP        -0.5845
     21 C1'         1.3733    1.5427    0.6747 C.3       1 ACP         0.4064
     22 N9          0.4520    2.5240    0.1767 N.pl3     1 ACP        -0.5630
     23 C8          0.1928    2.8484   -1.0815 C.ar      1 ACP         0.2808
     24 N7         -0.7248    3.8048   -1.2110 N.pl3     1 ACP        -0.5040
     25 C5         -1.0765    4.1129    0.0571 C.ar      1 ACP        -0.2807
     26 C6         -1.9614    5.0063    0.5851 C.ar      1 ACP         0.7712
     27 N6         -2.7145    5.8254   -0.2810 N.pl3     1 ACP        -0.9461
     28 N1         -2.1199    5.1113    1.9228 N.ar      1 ACP        -0.7457
     29 C2         -1.3522    4.2822    2.6839 C.ar      1 ACP         0.7201
     30 N3         -0.4501    3.3660    2.2638 N.ar      1 ACP        -0.6849
     31 C4         -0.3487    3.3198    0.9322 C.ar      1 ACP         0.6369
     32 HOG2       -1.5569   -3.5096   -6.1795 H         1 ACP         0.4781
     33 HOG3       -3.6546   -1.6452   -4.7851 H         1 ACP         0.4781
     34 H3B1       -0.8123   -1.1525   -7.1177 H         1 ACP         0.1236
     35 H3B2       -0.5409    0.2184   -6.0463 H         1 ACP         0.1236
     36 HOA2        4.2237   -2.0356   -4.8687 H         1 ACP         0.4716
     37 H5'1        1.2149   -0.0786   -2.0446 H         1 ACP         0.0529
     38 H5'2        2.4640   -1.3459   -2.1539 H         1 ACP         0.0529
     39 H4'         3.8049   -0.1388   -0.4009 H         1 ACP         0.1213
     40 H3'         1.6783   -1.7629    0.2715 H         1 ACP         0.0524
     41 HO3'        3.5554   -1.2733    1.4914 H         1 ACP         0.4707
     42 H2'        -0.0011    0.0027    0.0003 H         1 ACP         0.0774
     43 HO2'        0.8082    0.1199    2.7232 H         1 ACP         0.4561
     44 H1'         1.7826    1.9024    1.6451 H         1 ACP         0.1559
     45 H8          0.6728    2.3873   -1.9272 H         1 ACP         0.2754
     46 HN61       -2.5537    5.7714   -1.2667 H         1 ACP         0.4584
     47 HN62       -3.3283    6.5126    0.1081 H         1 ACP         0.4584
     48 H2         -1.4818    4.3694    3.7565 H         1 ACP         0.0892
     49 H49        -1.0701    4.2005   -2.0743 H         1 ACP         0.5039
@<TRIPOS>BOND
     1    1    2 2
     2    1    3 1
     3    1    4 1
     4    1    8 1
     5    3   32 1
     6    4   33 1
     7    5    6 2
     8    5    7 1
     9    5    8 1
    10    5   12 1
    11    8   34 1
    12    8   35 1
    13    9   10 2
    14    9   11 1
    15    9   12 1
    16    9   13 1
    17   11   36 1
    18   13   14 1
    19   14   15 1
    20   14   37 1
    21   14   38 1
    22   15   16 1
    23   15   17 1
    24   15   39 1
    25   16   21 1
    26   17   18 1
    27   17   19 1
    28   17   40 1
    29   18   41 1
    30   19   20 1
    31   19   21 1
    32   19   42 1
    33   20   43 1
    34   21   22 1
    35   21   44 1
    36   22   23 ar
    37   22   31 ar
    38   23   24 ar
    39   23   45 1
    40   24   25 ar
    41   24   49 1
    42   25   26 ar
    43   25   31 ar
    44   26   27 1
    45   26   28 ar
    46   27   46 1
    47   27   47 1
    48   28   29 ar
    49   29   30 ar
    50   29   48 1
    51   30   31 ar
@<TRIPOS>SUBSTRUCTURE
     1 ACP         1 GROUP 0 A     ****
@<TRIPOS>MOLECULE
[[5-(6-amino-7,8-dihydropurin-8-ylium-9-yl)-3,4-dihydroxy-tetrahydrofuran-2-yl]methoxy-hydroxy-phosphoryl]oxy-(phosphonomethyl)phosphinate
   49    51     1     0     0
SMALL
USER_CHARGES

@<TRIPOS>ATOM
      1 PG          0.7328   -0.3021   -7.7057 P.3       1 ACP         1.6362
      2 O1G         1.0468   -1.3105   -8.7697 O.2       1 ACP        -0.8691
      3 O2G         0.2930    1.1580   -8.2394 O.3       1 ACP        -0.8016
      4 O3G        -0.4568   -0.7112   -6.6923 O.3       1 ACP        -0.8016
      5 PB          2.9157   -1.2385   -5.5514 P.3       1 ACP         1.4874
      6 O1B         4.0158   -0.5631   -4.7659 O.co2     1 ACP        -0.8240
      7 O2B         3.1771   -2.4304   -6.4428 O.co2     1 ACP        -0.8240
      8 C3B         2.1115    0.0601   -6.5946 C.3       1 ACP        -0.6510
      9 PA          1.5750   -2.4621   -3.2281 P.3       1 ACP         1.7966
     10 O1A         1.9285   -3.9069   -3.4315 O.2       1 ACP        -0.8436
     11 O2A         0.0702   -2.2121   -2.6893 O.3       1 ACP        -0.8190
     12 O3A         1.6570   -1.5553   -4.5648 O.3       1 ACP        -0.7947
     13 O5'         2.5233   -1.6622   -2.1894 O.3       1 ACP        -0.5846
     14 C5'         2.2816   -0.2918   -1.9206 C.3       1 ACP         0.2005
     15 C4'         2.7248    0.0226   -0.4980 C.3       1 ACP         0.0711
     16 O4'         2.4697    1.4219   -0.2462 O.3       1 ACP        -0.4064
     17 C3'         1.9404   -0.7419    0.5596 C.3       1 ACP         0.0975
     18 O3'         2.7418   -0.8086    1.7389 O.3       1 ACP        -0.5957
     19 C2'         0.7477    0.1630    0.7858 C.3       1 ACP         0.1195
     20 O2'         0.1373   -0.0577    2.0407 O.3       1 ACP        -0.5845
     21 C1'         1.3733    1.5427    0.6747 C.3       1 ACP         0.4064
     22 N9          0.4520    2.5240    0.1767 N.pl3     1 ACP        -0.5630
     23 C8          0.1928    2.8484   -1.0815 C.ar      1 ACP         0.2808
     24 N7         -0.7248    3.8048   -1.2110 N.pl3     1 ACP        -0.5040
     25 C5         -1.0765    4.1129    0.0571 C.ar      1 ACP        -0.2807
     26 C6         -1.9614    5.0063    0.5851 C.ar      1 ACP         0.7712
     27 N6         -2.7145    5.8254   -0.2810 N.pl3     1 ACP        -0.9461
     28 N1         -2.1199    5.1113    1.9228 N.ar      1 ACP        -0.7457
     29 C2         -1.3522    4.2822    2.6839 C.ar      1 ACP         0.7201
     30 N3         -0.4501    3.3660    2.2638 N.ar      1 ACP        -0.6849
     31 C4         -0.3487    3.3198    0.9322 C.ar      1 ACP         0.6369
     32 HOG2       -0.5036    1.2368   -8.8065 H         1 ACP         0.4781
     33 HOG3       -0.7057   -0.0893   -5.9756 H         1 ACP         0.4781
     34 H3B1        2.9112    0.4934   -7.2059 H         1 ACP         0.1236
     35 H3B2        1.7806    0.8421   -5.9016 H         1 ACP         0.1236
     36 HOA2       -0.1963   -2.6013   -1.8292 H         1 ACP         0.4716
     37 H5'1        2.8428    0.3150   -2.6387 H         1 ACP         0.0529
     38 H5'2        1.2124   -0.0896   -2.0417 H         1 ACP         0.0529
     39 H4'         3.8049   -0.1388   -0.4009 H         1 ACP         0.1213
     40 H3'         1.6783   -1.7629    0.2715 H         1 ACP         0.0524
     41 HO3'        2.2232   -1.2979    2.3953 H         1 ACP         0.4707
     42 H2'        -0.0011    0.0027    0.0003 H         1 ACP         0.0774
     43 HO2'       -0.6141    0.5574    2.1082 H         1 ACP         0.4561
     44 H1'         1.7826    1.9024    1.6451 H         1 ACP         0.1559
     45 H8          0.6728    2.3873   -1.9272 H         1 ACP         0.2754
     46 HN61       -2.5537    5.7714   -1.2667 H         1 ACP         0.4584
     47 HN62       -3.3283    6.5126    0.1081 H         1 ACP         0.4584
     48 H2         -1.4818    4.3694    3.7565 H         1 ACP         0.0892
     49 H49        -1.0701    4.2005   -2.0743 H         1 ACP         0.5039
@<TRIPOS>BOND
     1    1    2 2
     2    1    3 1
     3    1    4 1
     4    1    8 1
     5    3   32 1
     6    4   33 1
     7    5    6 2
     8    5    7 1
     9    5    8 1
    10    5   12 1
    11    8   34 1
    12    8   35 1
    13    9   10 2
    14    9   11 1
    15    9   12 1
    16    9   13 1
    17   11   36 1
    18   13   14 1
    19   14   15 1
    20   14   37 1
    21   14   38 1
    22   15   16 1
    23   15   17 1
    24   15   39 1
    25   16   21 1
    26   17   18 1
    27   17   19 1
    28   17   40 1
    29   18   41 1
    30   19   20 1
    31   19   21 1
    32   19   42 1
    33   20   43 1
    34   21   22 1
    35   21   44 1
    36   22   23 ar
    37   22   31 ar
    38   23   24 ar
    39   23   45 1
    40   24   25 ar
    41   24   49 1
    42   25   26 ar
    43   25   31 ar
    44   26   27 1
    45   26   28 ar
    46   27   46 1
    47   27   47 1
    48   28   29 ar
    49   29   30 ar
    50   29   48 1
    51   30   31 ar
@<TRIPOS>SUBSTRUCTURE
     1 ACP         1 GROUP 0 A     ****
@<TRIPOS>MOLECULE
[[5-(6-amino-7,8-dihydropurin-8-ylium-9-yl)-3,4-dihydroxy-tetrahydrofuran-2-yl]methoxy-hydroxy-phosphoryl]oxy-(phosphonomethyl)phosphinate
   49    51     1     0     0
SMALL
USER_CHARGES

@<TRIPOS>ATOM
      1 PG         -1.6694    1.5834   -4.1659 P.3       1 ACP         1.6362
      2 O1G        -2.5768    0.4268   -4.4598 O.2       1 ACP        -0.8691
      3 O2G        -2.4057    3.0008   -3.9231 O.3       1 ACP        -0.8016
      4 O3G        -0.7304    1.4141   -2.8623 O.3       1 ACP        -0.8016
      5 PB          0.7713    0.7225   -6.0591 P.3       1 ACP         1.4874
      6 O1B         1.5728    1.3852   -7.1555 O.co2     1 ACP        -0.8240
      7 O2B         0.0508   -0.5893   -6.2681 O.co2     1 ACP        -0.8240
      8 C3B        -0.4842    1.9511   -5.4798 C.3       1 ACP        -0.6510
      9 PA          3.0853   -0.0761   -4.4159 P.3       1 ACP         1.7966
     10 O1A         4.2171    0.4133   -5.2721 O.2       1 ACP        -0.8436
     11 O2A         2.7514   -1.6500   -4.5859 O.3       1 ACP        -0.8190
     12 O3A         1.6668    0.6474   -4.6987 O.3       1 ACP        -0.7947
     13 O5'         3.2874    0.1331   -2.8242 O.3       1 ACP        -0.5846
     14 C5'         2.2816   -0.2918   -1.9206 C.3       1 ACP         0.2005
     15 C4'         2.7248    0.0226   -0.4980 C.3       1 ACP         0.0711
     16 O4'         2.4697    1.4219   -0.2462 O.3       1 ACP        -0.4064
     17 C3'         1.9404   -0.7419    0.5596 C.3       1 ACP         0.0975
     18 O3'         2.7418   -0.8086    1.7389 O.3       1 ACP        -0.5957
     19 C2'         0.7477    0.1630    0.7858 C.3       1 ACP         0.1195
     20 O2'         0.1373   -0.0577    2.0407 O.3       1 ACP        -0.5845
     21 C1'         1.3733    1.5427    0.6747 C.3       1 ACP         0.4064
     22 N9          0.4520    2.5240    0.1767 N.pl3     1 ACP        -0.5630
     23 C8         -0.8602    2.5861    0.3496 C.ar      1 ACP         0.2808
     24 N7         -1.4308    3.6326   -0.2443 N.pl3     1 ACP        -0.5040
     25 C5         -0.4080    4.2856   -0.8394 C.ar      1 ACP        -0.2807
     26 C6         -0.3432    5.4196   -1.5943 C.ar      1 ACP         0.7712
     27 N6         -1.5276    6.1333   -1.8702 N.pl3     1 ACP        -0.9461
     28 N1          0.8395    5.8603   -2.0764 N.ar      1 ACP        -0.7457
     29 C2          1.9319    5.1095   -1.7617 C.ar      1 ACP         0.7201
     30 N3          1.9773    3.9761   -1.0249 N.ar      1 ACP        -0.6849
     31 C4          0.7724    3.6031   -0.5836 C.ar      1 ACP         0.6369
     32 HOG2       -3.0495    3.0823   -3.1875 H         1 ACP         0.4781
     33 HOG3       -0.1161    2.1399   -2.6214 H         1 ACP         0.4781
     34 H3B1       -1.0643    2.2300   -6.3667 H         1 ACP         0.1236
     35 H3B2        0.0807    2.8398   -5.1760 H         1 ACP         0.1236
     36 HOA2        3.4497   -2.3077   -4.3811 H         1 ACP         0.4716
     37 H5'1        1.3494    0.2322   -2.1552 H         1 ACP         0.0529
     38 H5'2        2.1260   -1.3686   -2.0435 H         1 ACP         0.0529
     39 H4'         3.8049   -0.1388   -0.4009 H         1 ACP         0.1213
     40 H3'         1.6783   -1.7629    0.2715 H         1 ACP         0.0524
     41 HO3'        2.2232   -1.2979    2.3953 H         1 ACP         0.4707
     42 H2'        -0.0011    0.0027    0.0003 H         1 ACP         0.0774
     43 HO2'       -0.1563   -0.9855    2.0596 H         1 ACP         0.4561
     44 H1'         1.7826    1.9024    1.6451 H         1 ACP         0.1559
     45 H8         -1.4217    1.8638    0.9164 H         1 ACP         0.2754
     46 HN61       -2.4023    5.7711   -1.5477 H         1 ACP         0.4584
     47 HN62       -1.4856    6.9379   -2.4627 H         1 ACP         0.4584
     48 H2          2.8789    5.4660   -2.1503 H         1 ACP         0.0892
     49 H49        -2.4129    3.8706   -0.2402 H         1 ACP         0.5039
@<TRIPOS>BOND
     1    1    2 2
     2    1    3 1
     3    1    4 1
     4    1    8 1
     5    3   32 1
     6    4   33 1
     7    5    6 2
     8    5    7 1
     9    5    8 1
    10    5   12 1
    11    8   34 1
    12    8   35 1
    13    9   10 2
    14    9   11 1
    15    9   12 1
    16    9   13 1
    17   11   36 1
    18   13   14 1
    19   14   15 1
    20   14   37 1
    21   14   38 1
    22   15   16 1
    23   15   17 1
    24   15   39 1
    25   16   21 1
    26   17   18 1
    27   17   19 1
    28   17   40 1
    29   18   41 1
    30   19   20 1
    31   19   21 1
    32   19   42 1
    33   20   43 1
    34   21   22 1
    35   21   44 1
    36   22   23 ar
    37   22   31 ar
    38   23   24 ar
    39   23   45 1
    40   24   25 ar
    41   24   49 1
    42   25   26 ar
    43   25   31 ar
    44   26   27 1
    45   26   28 ar
    46   27   46 1
    47   27   47 1
    48   28   29 ar
    49   29   30 ar
    50   29   48 1
    51   30   31 ar
@<TRIPOS>SUBSTRUCTURE
     1 ACP         1 GROUP 0 A     ****
@<TRIPOS>MOLECULE
[[5-(6-amino-7,8-dihydropurin-8-ylium-9-yl)-3,4-dihydroxy-tetrahydrofuran-2-yl]methoxy-hydroxy-phosphoryl]oxy-(phosphonomethyl)phosphinate
   49    51     1     0     0
SMALL
USER_CHARGES

@<TRIPOS>ATOM
      1 PG          7.3458   -0.4674   -3.5410 P.3       1 ACP         1.6362
      2 O1G         8.0743   -1.7654   -3.7192 O.2       1 ACP        -0.8691
      3 O2G         6.3327   -0.4053   -2.2840 O.3       1 ACP        -0.8016
      4 O3G         8.2841    0.8320   -3.3382 O.3       1 ACP        -0.8016
      5 PB          4.8982   -1.0581   -5.5267 P.3       1 ACP         1.4874
      6 O1B         5.4808   -2.3930   -5.9293 O.co2     1 ACP        -0.8240
      7 O2B         4.0737   -0.2196   -6.4757 O.co2     1 ACP        -0.8240
      8 C3B         6.3000   -0.0035   -4.9402 C.3       1 ACP        -0.6510
      9 PA          2.8566   -2.1440   -3.6977 P.3       1 ACP         1.7966
     10 O1A         3.0940   -3.6176   -3.8586 O.2       1 ACP        -0.8436
     11 O2A         1.6428   -1.5611   -4.5945 O.3       1 ACP        -0.8190
     12 O3A         4.1138   -1.2120   -4.1056 O.3       1 ACP        -0.7947
     13 O5'         2.5233   -1.6622   -2.1894 O.3       1 ACP        -0.5846
     14 C5'         2.2816   -0.2918   -1.9206 C.3       1 ACP         0.2005
     15 C4'         2.7248    0.0226   -0.4980 C.3       1 ACP         0.0711
     16 O4'         2.4697    1.4219   -0.2462 O.3       1 ACP        -0.4064
     17 C3'         1.9404   -0.7419    0.5596 C.3       1 ACP         0.0975
     18 O3'         2.7418   -0.8086    1.7389 O.3       1 ACP        -0.5957
     19 C2'         0.7477    0.1630    0.7858 C.3       1 ACP         0.1195
     20 O2'         0.1373   -0.0577    2.0407 O.3       1 ACP        -0.5845
     21 C1'         1.3733    1.5427    0.6747 C.3       1 ACP         0.4064
     22 N9          0.4520    2.5240    0.1767 N.pl3     1 ACP        -0.5630
     23 C8          0.1928    2.8484   -1.0815 C.ar      1 ACP         0.2808
     24 N7         -0.7248    3.8048   -1.2110 N.pl3     1 ACP        -0.5040
     25 C5         -1.0765    4.1129    0.0571 C.ar      1 ACP        -0.2807
     26 C6         -1.9614    5.0063    0.5851 C.ar      1 ACP         0.7712
     27 N6         -2.7145    5.8254   -0.2810 N.pl3     1 ACP        -0.9461
     28 N1         -2.1199    5.1113    1.9228 N.ar      1 ACP        -0.7457
     29 C2         -1.3522    4.2822    2.6839 C.ar      1 ACP         0.7201
     30 N3         -0.4501    3.3660    2.2638 N.ar      1 ACP        -0.6849
     31 C4         -0.3487    3.3198    0.9322 C.ar      1 ACP         0.6369
     32 HOG2        5.5864   -1.0406   -2.2431 H         1 ACP         0.4781
     33 HOG3        8.8986    0.8599   -2.5741 H         1 ACP         0.4781
     34 H3B1        5.8638    0.9739   -4.7048 H         1 ACP         0.1236
     35 H3B2        6.9538    0.1399   -5.8080 H         1 ACP         0.1236
     36 HOA2        0.7398   -1.9201   -4.4610 H         1 ACP         0.4716
     37 H5'1        2.8428    0.3150   -2.6387 H         1 ACP         0.0529
     38 H5'2        1.2124   -0.0896   -2.0417 H         1 ACP         0.0529
     39 H4'         3.8049   -0.1388   -0.4009 H         1 ACP         0.1213
     40 H3'         1.6783   -1.7629    0.2715 H         1 ACP         0.0524
     41 HO3'        2.2232   -1.2979    2.3953 H         1 ACP         0.4707
     42 H2'        -0.0011    0.0027    0.0003 H         1 ACP         0.0774
     43 HO2'       -0.1563   -0.9855    2.0596 H         1 ACP         0.4561
     44 H1'         1.7826    1.9024    1.6451 H         1 ACP         0.1559
     45 H8          0.6728    2.3873   -1.9272 H         1 ACP         0.2754
     46 HN61       -3.3968    6.4465    0.1048 H         1 ACP         0.4584
     47 HN62       -2.6221    5.7051   -1.2696 H         1 ACP         0.4584
     48 H2         -1.4818    4.3694    3.7565 H         1 ACP         0.0892
     49 H49        -1.0701    4.2005   -2.0743 H         1 ACP         0.5039
@<TRIPOS>BOND
     1    1    2 2
     2    1    3 1
     3    1    4 1
     4    1    8 1
     5    3   32 1
     6    4   33 1
     7    5    6 2
     8    5    7 1
     9    5    8 1
    10    5   12 1
    11    8   34 1
    12    8   35 1
    13    9   10 2
    14    9   11 1
    15    9   12 1
    16    9   13 1
    17   11   36 1
    18   13   14 1
    19   14   15 1
    20   14   37 1
    21   14   38 1
    22   15   16 1
    23   15   17 1
    24   15   39 1
    25   16   21 1
    26   17   18 1
    27   17   19 1
    28   17   40 1
    29   18   41 1
    30   19   20 1
    31   19   21 1
    32   19   42 1
    33   20   43 1
    34   21   22 1
    35   21   44 1
    36   22   23 ar
    37   22   31 ar
    38   23   24 ar
    39   23   45 1
    40   24   25 ar
    41   24   49 1
    42   25   26 ar
    43   25   31 ar
    44   26   27 1
    45   26   28 ar
    46   27   46 1
    47   27   47 1
    48   28   29 ar
    49   29   30 ar
    50   29   48 1
    51   30   31 ar
@<TRIPOS>SUBSTRUCTURE
     1 ACP         1 GROUP 0 A     ****
@<TRIPOS>MOLECULE
[[5-(6-amino-7,8-dihydropurin-8-ylium-9-yl)-3,4-dihydroxy-tetrahydrofuran-2-yl]methoxy-hydroxy-phosphoryl]oxy-(phosphonomethyl)phosphinate
   49    51     1     0     0
SMALL
USER_CHARGES

@<TRIPOS>ATOM
      1 PG         -6.0639   -4.4783    1.9294 P.3       1 ACP         1.6362
      2 O1G        -4.9498   -4.1383    0.9856 O.2       1 ACP        -0.8691
      3 O2G        -7.2552   -3.3908    2.0197 O.3       1 ACP        -0.8016
      4 O3G        -6.8356   -5.8636    1.6205 O.3       1 ACP        -0.8016
      5 PB         -4.3064   -5.9373    4.1800 P.3       1 ACP         1.4874
      6 O1B        -4.8628   -7.2922    3.8082 O.co2     1 ACP        -0.8240
      7 O2B        -3.8938   -5.5958    5.5931 O.co2     1 ACP        -0.8240
      8 C3B        -5.5472   -4.6718    3.6504 C.3       1 ACP        -0.6510
      9 PA         -1.7112   -6.2792    2.8234 P.3       1 ACP         1.7966
     10 O1A        -1.8536   -7.6783    2.2982 O.2       1 ACP        -0.8436
     11 O2A        -0.8909   -6.1678    4.2134 O.3       1 ACP        -0.8190
     12 O3A        -3.1111   -5.5365    3.1461 O.3       1 ACP        -0.7947
     13 O5'        -0.9731   -5.2421    1.8246 O.3       1 ACP        -0.5846
     14 C5'        -0.7840   -3.8935    2.2172 C.3       1 ACP         0.2005
     15 C4'        -0.0724   -3.1466    1.1027 C.3       1 ACP         0.0711
     16 O4'        -0.8674   -3.1929   -0.0945 O.3       1 ACP        -0.4064
     17 C3'         0.1338   -1.6715    1.4027 C.3       1 ACP         0.0975
     18 O3'         1.2893   -1.4445    2.1808 O.3       1 ACP        -0.5957
     19 C2'         0.2158   -1.0724    0.0128 C.3       1 ACP         0.1195
     20 O2'         1.5141   -1.2448   -0.5513 O.3       1 ACP        -0.5845
     21 C1'        -0.7897   -1.9176   -0.7583 C.3       1 ACP         0.4064
     22 N9         -2.1040   -1.3333   -0.7704 N.pl3     1 ACP        -0.5630
     23 C8         -3.0822   -1.4850    0.1102 C.ar      1 ACP         0.2808
     24 N7         -4.1844   -0.7999   -0.1888 N.pl3     1 ACP        -0.5040
     25 C5         -3.8875   -0.1651   -1.3445 C.ar      1 ACP        -0.2807
     26 C6         -4.5941    0.6799   -2.1486 C.ar      1 ACP         0.7712
     27 N6         -5.9138    1.0274   -1.7939 N.pl3     1 ACP        -0.9461
     28 N1         -4.0421    1.1824   -3.2748 N.ar      1 ACP        -0.7457
     29 C2         -2.7637    0.7937   -3.5405 C.ar      1 ACP         0.7201
     30 N3         -1.9788   -0.0343   -2.8140 N.ar      1 ACP        -0.6849
     31 C4         -2.5915   -0.4902   -1.7174 C.ar      1 ACP         0.6369
     32 HOG2       -8.0104   -3.5619    2.6218 H         1 ACP         0.4781
     33 HOG3       -7.2868   -5.9739    0.7565 H         1 ACP         0.4781
     34 H3B1       -5.1490   -3.7045    3.9768 H         1 ACP         0.1236
     35 H3B2       -6.4471   -4.8635    4.2460 H         1 ACP         0.1236
     36 HOA2       -1.2307   -6.6393    5.0036 H         1 ACP         0.4716
     37 H5'1       -1.7611   -3.4417    2.4168 H         1 ACP         0.0529
     38 H5'2       -0.1868   -3.8712    3.1345 H         1 ACP         0.0529
     39 H4'         0.8886   -3.6448    0.8780 H         1 ACP         0.1213
     40 H3'        -0.7374   -1.2358    1.9870 H         1 ACP         0.0524
     41 HO3'        1.3408   -0.4870    2.3219 H         1 ACP         0.4707
     42 H2'        -0.0384   -0.0310    0.0096 H         1 ACP         0.0774
     43 HO2'        2.1463   -0.7958    0.0370 H         1 ACP         0.4561
     44 H1'        -0.4769   -2.1002   -1.8093 H         1 ACP         0.1559
     45 H8         -3.0031   -2.1011    0.9891 H         1 ACP         0.2754
     46 HN61       -6.3271    0.6117   -0.9836 H         1 ACP         0.4584
     47 HN62       -6.4471    1.6092   -2.4083 H         1 ACP         0.4584
     48 H2         -2.3243    1.1986   -4.4449 H         1 ACP         0.0892
     49 H49        -5.0436   -0.7722    0.3425 H         1 ACP         0.5039
@<TRIPOS>BOND
     1    1    2 2
     2    1    3 1
     3    1    4 1
     4    1    8 1
     5    3   32 1
     6    4   33 1
     7    5    6 2
     8    5    7 1
     9    5    8 1
    10    5   12 1
    11    8   34 1
    12    8   35 1
    13    9   10 2
    14    9   11 1
    15    9   12 1
    16    9   13 1
    17   11   36 1
    18   13   14 1
    19   14   15 1
    20   14   37 1
    21   14   38 1
    22   15   16 1
    23   15   17 1
    24   15   39 1
    25   16   21 1
    26   17   18 1
    27   17   19 1
    28   17   40 1
    29   18   41 1
    30   19   20 1
    31   19   21 1
    32   19   42 1
    33   20   43 1
    34   21   22 1
    35   21   44 1
    36   22   23 ar
    37   22   31 ar
    38   23   24 ar
    39   23   45 1
    40   24   25 ar
    41   24   49 1
    42   25   26 ar
    43   25   31 ar
    44   26   27 1
    45   26   28 ar
    46   27   46 1
    47   27   47 1
    48   28   29 ar
    49   29   30 ar
    50   29   48 1
    51   30   31 ar
@<TRIPOS>SUBSTRUCTURE
     1 ACP         1 GROUP 0 A     ****
@<TRIPOS>MOLECULE
[[5-(6-amino-7,8-dihydropurin-8-ylium-9-yl)-3,4-dihydroxy-tetrahydrofuran-2-yl]methoxy-hydroxy-phosphoryl]oxy-(phosphonomethyl)phosphinate
   49    51     1     0     0
SMALL
USER_CHARGES

@<TRIPOS>ATOM
      1 PG         -0.9862   -2.0993   -4.3699 P.3       1 ACP         1.6362
      2 O1G        -1.4759   -1.6265   -3.0341 O.2       1 ACP        -0.8691
      3 O2G         0.3958   -2.9357   -4.3478 O.3       1 ACP        -0.8016
      4 O3G        -2.0006   -3.0614   -5.1792 O.3       1 ACP        -0.8016
      5 PB          0.5959    0.5556   -5.2253 P.3       1 ACP         1.4874
      6 O1B         0.1608    1.2796   -3.9723 O.co2     1 ACP        -0.8240
      7 O2B         0.8323    1.2771   -6.5318 O.co2     1 ACP        -0.8240
      8 C3B        -0.6497   -0.7728   -5.5504 C.3       1 ACP        -0.6510
      9 PA          3.3384   -0.0297   -4.3151 P.3       1 ACP         1.7966
     10 O1A         4.1258    0.9106   -5.1809 O.2       1 ACP        -0.8436
     11 O2A         4.0360   -1.4716   -4.0883 O.3       1 ACP        -0.8190
     12 O3A         1.8718   -0.4013   -4.8868 O.3       1 ACP        -0.7947
     13 O5'         3.0190    0.5130   -2.8246 O.3       1 ACP        -0.5846
     14 C5'         2.2816   -0.2918   -1.9206 C.3       1 ACP         0.2005
     15 C4'         2.7248    0.0226   -0.4980 C.3       1 ACP         0.0711
     16 O4'         2.4697    1.4219   -0.2462 O.3       1 ACP        -0.4064
     17 C3'         1.9404   -0.7419    0.5596 C.3       1 ACP         0.0975
     18 O3'         2.7418   -0.8086    1.7389 O.3       1 ACP        -0.5957
     19 C2'         0.7477    0.1630    0.7858 C.3       1 ACP         0.1195
     20 O2'         0.1373   -0.0577    2.0407 O.3       1 ACP        -0.5845
     21 C1'         1.3733    1.5427    0.6747 C.3       1 ACP         0.4064
     22 N9          0.4520    2.5240    0.1767 N.pl3     1 ACP        -0.5630
     23 C8          0.1928    2.8484   -1.0815 C.ar      1 ACP         0.2808
     24 N7         -0.7248    3.8048   -1.2110 N.pl3     1 ACP        -0.5040
     25 C5         -1.0765    4.1129    0.0571 C.ar      1 ACP        -0.2807
     26 C6         -1.9614    5.0063    0.5851 C.ar      1 ACP         0.7712
     27 N6         -2.7145    5.8254   -0.2810 N.pl3     1 ACP        -0.9461
     28 N1         -2.1199    5.1113    1.9228 N.ar      1 ACP        -0.7457
     29 C2         -1.3522    4.2822    2.6839 C.ar      1 ACP         0.7201
     30 N3         -0.4501    3.3660    2.2638 N.ar      1 ACP        -0.6849
     31 C4         -0.3487    3.3198    0.9322 C.ar      1 ACP         0.6369
     32 HOG2        1.2056   -2.5067   -3.9979 H         1 ACP         0.4781
     33 HOG3       -2.2757   -3.9110   -4.7733 H         1 ACP         0.4781
     34 H3B1       -0.3448   -1.2484   -6.4894 H         1 ACP         0.1236
     35 H3B2       -1.5967   -0.2573   -5.7469 H         1 ACP         0.1236
     36 HOA2        4.9197   -1.5094   -3.6642 H         1 ACP         0.4716
     37 H5'1        1.2149   -0.0786   -2.0446 H         1 ACP         0.0529
     38 H5'2        2.4640   -1.3459   -2.1539 H         1 ACP         0.0529
     39 H4'         3.8049   -0.1388   -0.4009 H         1 ACP         0.1213
     40 H3'         1.6783   -1.7629    0.2715 H         1 ACP         0.0524
     41 HO3'        2.2232   -1.2979    2.3953 H         1 ACP         0.4707
     42 H2'        -0.0011    0.0027    0.0003 H         1 ACP         0.0774
     43 HO2'       -0.6141    0.5574    2.1082 H         1 ACP         0.4561
     44 H1'         1.7826    1.9024    1.6451 H         1 ACP         0.1559
     45 H8          0.6728    2.3873   -1.9272 H         1 ACP         0.2754
     46 HN61       -2.5537    5.7714   -1.2667 H         1 ACP         0.4584
     47 HN62       -3.3283    6.5126    0.1081 H         1 ACP         0.4584
     48 H2         -1.4818    4.3694    3.7565 H         1 ACP         0.0892
     49 H49        -1.0701    4.2005   -2.0743 H         1 ACP         0.5039
@<TRIPOS>BOND
     1    1    2 2
     2    1    3 1
     3    1    4 1
     4    1    8 1
     5    3   32 1
     6    4   33 1
     7    5    6 2
     8    5    7 1
     9    5    8 1
    10    5   12 1
    11    8   34 1
    12    8   35 1
    13    9   10 2
    14    9   11 1
    15    9   12 1
    16    9   13 1
    17   11   36 1
    18   13   14 1
    19   14   15 1
    20   14   37 1
    21   14   38 1
    22   15   16 1
    23   15   17 1
    24   15   39 1
    25   16   21 1
    26   17   18 1
    27   17   19 1
    28   17   40 1
    29   18   41 1
    30   19   20 1
    31   19   21 1
    32   19   42 1
    33   20   43 1
    34   21   22 1
    35   21   44 1
    36   22   23 ar
    37   22   31 ar
    38   23   24 ar
    39   23   45 1
    40   24   25 ar
    41   24   49 1
    42   25   26 ar
    43   25   31 ar
    44   26   27 1
    45   26   28 ar
    46   27   46 1
    47   27   47 1
    48   28   29 ar
    49   29   30 ar
    50   29   48 1
    51   30   31 ar
@<TRIPOS>SUBSTRUCTURE
     1 ACP         1 GROUP 0 A     ****
@<TRIPOS>MOLECULE
[[5-(6-amino-7,8-dihydropurin-8-ylium-9-yl)-3,4-dihydroxy-tetrahydrofuran-2-yl]methoxy-hydroxy-phosphoryl]oxy-(phosphonomethyl)phosphinate
   49    51     1     0     0
SMALL
USER_CHARGES

@<TRIPOS>ATOM
      1 PG          6.0636    1.6907   -4.3567 P.3       1 ACP         1.6362
      2 O1G         5.1530    1.8136   -3.1722 O.2       1 ACP        -0.8691
      3 O2G         5.5871    2.4774   -5.6849 O.3       1 ACP        -0.8016
      4 O3G         7.5749    2.2131   -4.1264 O.3       1 ACP        -0.8016
      5 PB          4.8982   -1.0581   -5.5267 P.3       1 ACP         1.4874
      6 O1B         5.4808   -2.3930   -5.9293 O.co2     1 ACP        -0.8240
      7 O2B         4.0737   -0.2196   -6.4757 O.co2     1 ACP        -0.8240
      8 C3B         6.3000   -0.0035   -4.9402 C.3       1 ACP        -0.6510
      9 PA          2.8566   -2.1440   -3.6977 P.3       1 ACP         1.7966
     10 O1A         3.0940   -3.6176   -3.8586 O.2       1 ACP        -0.8436
     11 O2A         1.6428   -1.5611   -4.5945 O.3       1 ACP        -0.8190
     12 O3A         4.1138   -1.2120   -4.1056 O.3       1 ACP        -0.7947
     13 O5'         2.5233   -1.6622   -2.1894 O.3       1 ACP        -0.5846
     14 C5'         2.2816   -0.2918   -1.9206 C.3       1 ACP         0.2005
     15 C4'         2.7248    0.0226   -0.4980 C.3       1 ACP         0.0711
     16 O4'         2.4697    1.4219   -0.2462 O.3       1 ACP        -0.4064
     17 C3'         1.9404   -0.7419    0.5596 C.3       1 ACP         0.0975
     18 O3'         2.7418   -0.8086    1.7389 O.3       1 ACP        -0.5957
     19 C2'         0.7477    0.1630    0.7858 C.3       1 ACP         0.1195
     20 O2'         0.1373   -0.0577    2.0407 O.3       1 ACP        -0.5845
     21 C1'         1.3733    1.5427    0.6747 C.3       1 ACP         0.4064
     22 N9          0.4520    2.5240    0.1767 N.pl3     1 ACP        -0.5630
     23 C8          0.1928    2.8484   -1.0815 C.ar      1 ACP         0.2808
     24 N7         -0.7248    3.8048   -1.2110 N.pl3     1 ACP        -0.5040
     25 C5         -1.0765    4.1129    0.0571 C.ar      1 ACP        -0.2807
     26 C6         -1.9614    5.0063    0.5851 C.ar      1 ACP         0.7712
     27 N6         -2.7145    5.8254   -0.2810 N.pl3     1 ACP        -0.9461
     28 N1         -2.1199    5.1113    1.9228 N.ar      1 ACP        -0.7457
     29 C2         -1.3522    4.2822    2.6839 C.ar      1 ACP         0.7201
     30 N3         -0.4501    3.3660    2.2638 N.ar      1 ACP        -0.6849
     31 C4         -0.3487    3.3198    0.9322 C.ar      1 ACP         0.6369
     32 HOG2        6.1450    2.4317   -6.4904 H         1 ACP         0.4781
     33 HOG3        7.7210    3.1511   -3.8790 H         1 ACP         0.4781
     34 H3B1        7.0128    0.0398   -5.7714 H         1 ACP         0.1236
     35 H3B2        6.7844   -0.5660   -4.1339 H         1 ACP         0.1236
     36 HOA2        1.6914   -1.6457   -5.5706 H         1 ACP         0.4716
     37 H5'1        2.8428    0.3150   -2.6387 H         1 ACP         0.0529
     38 H5'2        1.2124   -0.0896   -2.0417 H         1 ACP         0.0529
     39 H4'         3.8049   -0.1388   -0.4009 H         1 ACP         0.1213
     40 H3'         1.6783   -1.7629    0.2715 H         1 ACP         0.0524
     41 HO3'        3.5554   -1.2733    1.4914 H         1 ACP         0.4707
     42 H2'        -0.0011    0.0027    0.0003 H         1 ACP         0.0774
     43 HO2'       -0.1563   -0.9855    2.0596 H         1 ACP         0.4561
     44 H1'         1.7826    1.9024    1.6451 H         1 ACP         0.1559
     45 H8          0.6728    2.3873   -1.9272 H         1 ACP         0.2754
     46 HN61       -2.5537    5.7714   -1.2667 H         1 ACP         0.4584
     47 HN62       -3.3283    6.5126    0.1081 H         1 ACP         0.4584
     48 H2         -1.4818    4.3694    3.7565 H         1 ACP         0.0892
     49 H49        -1.0701    4.2005   -2.0743 H         1 ACP         0.5039
@<TRIPOS>BOND
     1    1    2 2
     2    1    3 1
     3    1    4 1
     4    1    8 1
     5    3   32 1
     6    4   33 1
     7    5    6 2
     8    5    7 1
     9    5    8 1
    10    5   12 1
    11    8   34 1
    12    8   35 1
    13    9   10 2
    14    9   11 1
    15    9   12 1
    16    9   13 1
    17   11   36 1
    18   13   14 1
    19   14   15 1
    20   14   37 1
    21   14   38 1
    22   15   16 1
    23   15   17 1
    24   15   39 1
    25   16   21 1
    26   17   18 1
    27   17   19 1
    28   17   40 1
    29   18   41 1
    30   19   20 1
    31   19   21 1
    32   19   42 1
    33   20   43 1
    34   21   22 1
    35   21   44 1
    36   22   23 ar
    37   22   31 ar
    38   23   24 ar
    39   23   45 1
    40   24   25 ar
    41   24   49 1
    42   25   26 ar
    43   25   31 ar
    44   26   27 1
    45   26   28 ar
    46   27   46 1
    47   27   47 1
    48   28   29 ar
    49   29   30 ar
    50   29   48 1
    51   30   31 ar
@<TRIPOS>SUBSTRUCTURE
     1 ACP         1 GROUP 0 A     ****
@<TRIPOS>MOLECULE
[[5-(6-amino-7,8-dihydropurin-8-ylium-9-yl)-3,4-dihydroxy-tetrahydrofuran-2-yl]methoxy-hydroxy-phosphoryl]oxy-(phosphonomethyl)phosphinate
   49    51     1     0     0
SMALL
USER_CHARGES

@<TRIPOS>ATOM
      1 PG          0.4506    1.4511   -5.6022 P.3       1 ACP         1.6362
      2 O1G        -0.4458    0.7127   -4.6543 O.2       1 ACP        -0.8691
      3 O2G        -0.3009    2.2730   -6.7726 O.3       1 ACP        -0.8016
      4 O3G         1.4188    2.5527   -4.9249 O.3       1 ACP        -0.8016
      5 PB          2.8638   -0.6598   -5.6632 P.3       1 ACP         1.4874
      6 O1B         3.7582    0.2630   -4.8682 O.co2     1 ACP        -0.8240
      7 O2B         3.4097   -1.6201   -6.6944 O.co2     1 ACP        -0.8240
      8 C3B         1.6029    0.3957   -6.5104 C.3       1 ACP        -0.6510
      9 PA          2.1858   -2.4502   -3.4210 P.3       1 ACP         1.7966
     10 O1A         2.9584   -3.6795   -3.8027 O.2       1 ACP        -0.8436
     11 O2A         0.7319   -2.7483   -2.7769 O.3       1 ACP        -0.8190
     12 O3A         1.8605   -1.4518   -4.6510 O.3       1 ACP        -0.7947
     13 O5'         2.9195   -1.4814   -2.3528 O.3       1 ACP        -0.5846
     14 C5'         2.2816   -0.2918   -1.9206 C.3       1 ACP         0.2005
     15 C4'         2.7248    0.0226   -0.4980 C.3       1 ACP         0.0711
     16 O4'         2.4697    1.4219   -0.2462 O.3       1 ACP        -0.4064
     17 C3'         1.9404   -0.7419    0.5596 C.3       1 ACP         0.0975
     18 O3'         2.7418   -0.8086    1.7389 O.3       1 ACP        -0.5957
     19 C2'         0.7477    0.1630    0.7858 C.3       1 ACP         0.1195
     20 O2'         0.1373   -0.0577    2.0407 O.3       1 ACP        -0.5845
     21 C1'         1.3733    1.5427    0.6747 C.3       1 ACP         0.4064
     22 N9          0.4520    2.5240    0.1767 N.pl3     1 ACP        -0.5630
     23 C8         -0.2172    2.5216   -0.9668 C.ar      1 ACP         0.2808
     24 N7         -1.0011    3.5855   -1.1321 N.pl3     1 ACP        -0.5040
     25 C5         -0.8184    4.3200   -0.0123 C.ar      1 ACP        -0.2807
     26 C6         -1.3349    5.5079    0.4144 C.ar      1 ACP         0.7712
     27 N6         -2.2567    6.1930   -0.4036 N.pl3     1 ACP        -0.9461
     28 N1         -0.9716    6.0291    1.6069 N.ar      1 ACP        -0.7457
     29 C2         -0.0765    5.3009    2.3312 C.ar      1 ACP         0.7201
     30 N3          0.4933    4.1191    2.0023 N.ar      1 ACP        -0.6849
     31 C4          0.0865    3.6675    0.8123 C.ar      1 ACP         0.6369
     32 HOG2       -0.9304    2.9836   -6.5256 H         1 ACP         0.4781
     33 HOG3        2.0274    3.0668   -5.4972 H         1 ACP         0.4781
     34 H3B1        1.0006   -0.2863   -7.1211 H         1 ACP         0.1236
     35 H3B2        2.1611    1.0355   -7.2033 H         1 ACP         0.1236
     36 HOA2        0.6780   -3.2767   -1.9523 H         1 ACP         0.4716
     37 H5'1        2.5577    0.5244   -2.5962 H         1 ACP         0.0529
     38 H5'2        1.1970   -0.4361   -1.9603 H         1 ACP         0.0529
     39 H4'         3.8049   -0.1388   -0.4009 H         1 ACP         0.1213
     40 H3'         1.6783   -1.7629    0.2715 H         1 ACP         0.0524
     41 HO3'        2.2232   -1.2979    2.3953 H         1 ACP         0.4707
     42 H2'        -0.0011    0.0027    0.0003 H         1 ACP         0.0774
     43 HO2'       -0.6141    0.5574    2.1082 H         1 ACP         0.4561
     44 H1'         1.7826    1.9024    1.6451 H         1 ACP         0.1559
     45 H8         -0.1423    1.7373   -1.6999 H         1 ACP         0.2754
     46 HN61       -2.4811    5.8206   -1.3042 H         1 ACP         0.4584
     47 HN62       -2.5986    7.0863   -0.1113 H         1 ACP         0.4584
     48 H2          0.2128    5.7222    3.2871 H         1 ACP         0.0892
     49 H49        -1.5947    3.7835   -1.9255 H         1 ACP         0.5039
@<TRIPOS>BOND
     1    1    2 2
     2    1    3 1
     3    1    4 1
     4    1    8 1
     5    3   32 1
     6    4   33 1
     7    5    6 2
     8    5    7 1
     9    5    8 1
    10    5   12 1
    11    8   34 1
    12    8   35 1
    13    9   10 2
    14    9   11 1
    15    9   12 1
    16    9   13 1
    17   11   36 1
    18   13   14 1
    19   14   15 1
    20   14   37 1
    21   14   38 1
    22   15   16 1
    23   15   17 1
    24   15   39 1
    25   16   21 1
    26   17   18 1
    27   17   19 1
    28   17   40 1
    29   18   41 1
    30   19   20 1
    31   19   21 1
    32   19   42 1
    33   20   43 1
    34   21   22 1
    35   21   44 1
    36   22   23 ar
    37   22   31 ar
    38   23   24 ar
    39   23   45 1
    40   24   25 ar
    41   24   49 1
    42   25   26 ar
    43   25   31 ar
    44   26   27 1
    45   26   28 ar
    46   27   46 1
    47   27   47 1
    48   28   29 ar
    49   29   30 ar
    50   29   48 1
    51   30   31 ar
@<TRIPOS>SUBSTRUCTURE
     1 ACP         1 GROUP 0 A     ****
@<TRIPOS>MOLECULE
[[5-(6-amino-7,8-dihydropurin-8-ylium-9-yl)-3,4-dihydroxy-tetrahydrofuran-2-yl]methoxy-hydroxy-phosphoryl]oxy-(phosphonomethyl)phosphinate
   49    51     1     0     0
SMALL
USER_CHARGES

@<TRIPOS>ATOM
      1 PG          5.3172    1.9214   -4.3355 P.3       1 ACP         1.6362
      2 O1G         5.1660    2.4913   -2.9571 O.2       1 ACP        -0.8691
      3 O2G         3.9366    1.5913   -5.1069 O.3       1 ACP        -0.8016
      4 O3G         6.1269    2.8467   -5.3833 O.3       1 ACP        -0.8016
      5 PB          5.6296   -1.1607   -3.5072 P.3       1 ACP         1.4874
      6 O1B         5.5803   -0.8227   -2.0352 O.co2     1 ACP        -0.8240
      7 O2B         6.4275   -2.3284   -4.0395 O.co2     1 ACP        -0.8240
      8 C3B         6.2124    0.3525   -4.3971 C.3       1 ACP        -0.6510
      9 PA          2.8566   -2.1440   -3.6977 P.3       1 ACP         1.7966
     10 O1A         3.0940   -3.6176   -3.8586 O.2       1 ACP        -0.8436
     11 O2A         1.6428   -1.5611   -4.5945 O.3       1 ACP        -0.8190
     12 O3A         4.1138   -1.2120   -4.1056 O.3       1 ACP        -0.7947
     13 O5'         2.5233   -1.6622   -2.1894 O.3       1 ACP        -0.5846
     14 C5'         2.2816   -0.2918   -1.9206 C.3       1 ACP         0.2005
     15 C4'         2.7248    0.0226   -0.4980 C.3       1 ACP         0.0711
     16 O4'         2.4697    1.4219   -0.2462 O.3       1 ACP        -0.4064
     17 C3'         1.9404   -0.7419    0.5596 C.3       1 ACP         0.0975
     18 O3'         2.7418   -0.8086    1.7389 O.3       1 ACP        -0.5957
     19 C2'         0.7477    0.1630    0.7858 C.3       1 ACP         0.1195
     20 O2'         0.1373   -0.0577    2.0407 O.3       1 ACP        -0.5845
     21 C1'         1.3733    1.5427    0.6747 C.3       1 ACP         0.4064
     22 N9          0.4520    2.5240    0.1767 N.pl3     1 ACP        -0.5630
     23 C8          0.1928    2.8484   -1.0815 C.ar      1 ACP         0.2808
     24 N7         -0.7248    3.8048   -1.2110 N.pl3     1 ACP        -0.5040
     25 C5         -1.0765    4.1129    0.0571 C.ar      1 ACP        -0.2807
     26 C6         -1.9614    5.0063    0.5851 C.ar      1 ACP         0.7712
     27 N6         -2.7145    5.8254   -0.2810 N.pl3     1 ACP        -0.9461
     28 N1         -2.1199    5.1113    1.9228 N.ar      1 ACP        -0.7457
     29 C2         -1.3522    4.2822    2.6839 C.ar      1 ACP         0.7201
     30 N3         -0.4501    3.3660    2.2638 N.ar      1 ACP        -0.6849
     31 C4         -0.3487    3.3198    0.9322 C.ar      1 ACP         0.6369
     32 HOG2        3.3127    0.9467   -4.7102 H         1 ACP         0.4781
     33 HOG3        5.7833    3.7416   -5.5914 H         1 ACP         0.4781
     34 H3B1        6.2916    0.0693   -5.4528 H         1 ACP         0.1236
     35 H3B2        7.2315    0.5393   -4.0399 H         1 ACP         0.1236
     36 HOA2        1.6914   -1.6457   -5.5706 H         1 ACP         0.4716
     37 H5'1        2.8428    0.3150   -2.6387 H         1 ACP         0.0529
     38 H5'2        1.2124   -0.0896   -2.0417 H         1 ACP         0.0529
     39 H4'         3.8049   -0.1388   -0.4009 H         1 ACP         0.1213
     40 H3'         1.6783   -1.7629    0.2715 H         1 ACP         0.0524
     41 HO3'        2.2232   -1.2979    2.3953 H         1 ACP         0.4707
     42 H2'        -0.0011    0.0027    0.0003 H         1 ACP         0.0774
     43 HO2'       -0.6141    0.5574    2.1082 H         1 ACP         0.4561
     44 H1'         1.7826    1.9024    1.6451 H         1 ACP         0.1559
     45 H8          0.6728    2.3873   -1.9272 H         1 ACP         0.2754
     46 HN61       -2.5537    5.7714   -1.2667 H         1 ACP         0.4584
     47 HN62       -3.3283    6.5126    0.1081 H         1 ACP         0.4584
     48 H2         -1.4818    4.3694    3.7565 H         1 ACP         0.0892
     49 H49        -1.0701    4.2005   -2.0743 H         1 ACP         0.5039
@<TRIPOS>BOND
     1    1    2 2
     2    1    3 1
     3    1    4 1
     4    1    8 1
     5    3   32 1
     6    4   33 1
     7    5    6 2
     8    5    7 1
     9    5    8 1
    10    5   12 1
    11    8   34 1
    12    8   35 1
    13    9   10 2
    14    9   11 1
    15    9   12 1
    16    9   13 1
    17   11   36 1
    18   13   14 1
    19   14   15 1
    20   14   37 1
    21   14   38 1
    22   15   16 1
    23   15   17 1
    24   15   39 1
    25   16   21 1
    26   17   18 1
    27   17   19 1
    28   17   40 1
    29   18   41 1
    30   19   20 1
    31   19   21 1
    32   19   42 1
    33   20   43 1
    34   21   22 1
    35   21   44 1
    36   22   23 ar
    37   22   31 ar
    38   23   24 ar
    39   23   45 1
    40   24   25 ar
    41   24   49 1
    42   25   26 ar
    43   25   31 ar
    44   26   27 1
    45   26   28 ar
    46   27   46 1
    47   27   47 1
    48   28   29 ar
    49   29   30 ar
    50   29   48 1
    51   30   31 ar
@<TRIPOS>SUBSTRUCTURE
     1 ACP         1 GROUP 0 A     ****
@<TRIPOS>MOLECULE
[[5-(6-amino-7,8-dihydropurin-8-ylium-9-yl)-3,4-dihydroxy-tetrahydrofuran-2-yl]methoxy-hydroxy-phosphoryl]oxy-(phosphonomethyl)phosphinate
   49    51     1     0     0
SMALL
USER_CHARGES

@<TRIPOS>ATOM
      1 PG          0.8483    1.4862   -6.2741 P.3       1 ACP         1.6362
      2 O1G         1.2846    2.6535   -7.1075 O.2       1 ACP        -0.8691
      3 O2G         1.3463    1.5040   -4.7373 O.3       1 ACP        -0.8016
      4 O3G        -0.7493    1.2787   -6.1542 O.3       1 ACP        -0.8016
      5 PB          1.0204   -1.7062   -6.0250 P.3       1 ACP         1.4874
      6 O1B         1.6708   -2.8171   -6.8164 O.co2     1 ACP        -0.8240
      7 O2B        -0.4610   -1.6897   -5.7272 O.co2     1 ACP        -0.8240
      8 C3B         1.4255   -0.1161   -6.8789 C.3       1 ACP        -0.6510
      9 PA          2.1858   -2.4502   -3.4210 P.3       1 ACP         1.7966
     10 O1A         2.9584   -3.6795   -3.8027 O.2       1 ACP        -0.8436
     11 O2A         0.7319   -2.7483   -2.7769 O.3       1 ACP        -0.8190
     12 O3A         1.8605   -1.4518   -4.6510 O.3       1 ACP        -0.7947
     13 O5'         2.9195   -1.4814   -2.3528 O.3       1 ACP        -0.5846
     14 C5'         2.2816   -0.2918   -1.9206 C.3       1 ACP         0.2005
     15 C4'         2.7248    0.0226   -0.4980 C.3       1 ACP         0.0711
     16 O4'         2.4697    1.4219   -0.2462 O.3       1 ACP        -0.4064
     17 C3'         1.9404   -0.7419    0.5596 C.3       1 ACP         0.0975
     18 O3'         2.7418   -0.8086    1.7389 O.3       1 ACP        -0.5957
     19 C2'         0.7477    0.1630    0.7858 C.3       1 ACP         0.1195
     20 O2'         0.1373   -0.0577    2.0407 O.3       1 ACP        -0.5845
     21 C1'         1.3733    1.5427    0.6747 C.3       1 ACP         0.4064
     22 N9          0.4520    2.5240    0.1767 N.pl3     1 ACP        -0.5630
     23 C8          0.1928    2.8484   -1.0815 C.ar      1 ACP         0.2808
     24 N7         -0.7248    3.8048   -1.2110 N.pl3     1 ACP        -0.5040
     25 C5         -1.0765    4.1129    0.0571 C.ar      1 ACP        -0.2807
     26 C6         -1.9614    5.0063    0.5851 C.ar      1 ACP         0.7712
     27 N6         -2.7145    5.8254   -0.2810 N.pl3     1 ACP        -0.9461
     28 N1         -2.1199    5.1113    1.9228 N.ar      1 ACP        -0.7457
     29 C2         -1.3522    4.2822    2.6839 C.ar      1 ACP         0.7201
     30 N3         -0.4501    3.3660    2.2638 N.ar      1 ACP        -0.6849
     31 C4         -0.3487    3.3198    0.9322 C.ar      1 ACP         0.6369
     32 HOG2        1.0900    0.7645   -4.1459 H         1 ACP         0.4781
     33 HOG3       -1.2939    1.9958   -5.7651 H         1 ACP         0.4781
     34 H3B1        1.0576   -0.2233   -7.9056 H         1 ACP         0.1236
     35 H3B2        2.5192   -0.0736   -6.9351 H         1 ACP         0.1236
     36 HOA2        0.6780   -3.2767   -1.9523 H         1 ACP         0.4716
     37 H5'1        2.5577    0.5244   -2.5962 H         1 ACP         0.0529
     38 H5'2        1.1970   -0.4361   -1.9603 H         1 ACP         0.0529
     39 H4'         3.8049   -0.1388   -0.4009 H         1 ACP         0.1213
     40 H3'         1.6783   -1.7629    0.2715 H         1 ACP         0.0524
     41 HO3'        2.2232   -1.2979    2.3953 H         1 ACP         0.4707
     42 H2'        -0.0011    0.0027    0.0003 H         1 ACP         0.0774
     43 HO2'       -0.6141    0.5574    2.1082 H         1 ACP         0.4561
     44 H1'         1.7826    1.9024    1.6451 H         1 ACP         0.1559
     45 H8          0.6728    2.3873   -1.9272 H         1 ACP         0.2754
     46 HN61       -2.5537    5.7714   -1.2667 H         1 ACP         0.4584
     47 HN62       -3.3283    6.5126    0.1081 H         1 ACP         0.4584
     48 H2         -1.4818    4.3694    3.7565 H         1 ACP         0.0892
     49 H49        -1.0701    4.2005   -2.0743 H         1 ACP         0.5039
@<TRIPOS>BOND
     1    1    2 2
     2    1    3 1
     3    1    4 1
     4    1    8 1
     5    3   32 1
     6    4   33 1
     7    5    6 2
     8    5    7 1
     9    5    8 1
    10    5   12 1
    11    8   34 1
    12    8   35 1
    13    9   10 2
    14    9   11 1
    15    9   12 1
    16    9   13 1
    17   11   36 1
    18   13   14 1
    19   14   15 1
    20   14   37 1
    21   14   38 1
    22   15   16 1
    23   15   17 1
    24   15   39 1
    25   16   21 1
    26   17   18 1
    27   17   19 1
    28   17   40 1
    29   18   41 1
    30   19   20 1
    31   19   21 1
    32   19   42 1
    33   20   43 1
    34   21   22 1
    35   21   44 1
    36   22   23 ar
    37   22   31 ar
    38   23   24 ar
    39   23   45 1
    40   24   25 ar
    41   24   49 1
    42   25   26 ar
    43   25   31 ar
    44   26   27 1
    45   26   28 ar
    46   27   46 1
    47   27   47 1
    48   28   29 ar
    49   29   30 ar
    50   29   48 1
    51   30   31 ar
@<TRIPOS>SUBSTRUCTURE
     1 ACP         1 GROUP 0 A     ****
@<TRIPOS>MOLECULE
[[5-(6-amino-7,8-dihydropurin-8-ylium-9-yl)-3,4-dihydroxy-tetrahydrofuran-2-yl]methoxy-hydroxy-phosphoryl]oxy-(phosphonomethyl)phosphinate
   49    51     1     0     0
SMALL
USER_CHARGES

@<TRIPOS>ATOM
      1 PG         -1.3966   -1.6692   -4.8773 P.3       1 ACP         1.6362
      2 O1G        -2.8559   -1.3312   -4.9369 O.2       1 ACP        -0.8691
      3 O2G        -0.6458   -1.2707   -3.5034 O.3       1 ACP        -0.8016
      4 O3G        -1.0390   -3.2333   -5.0666 O.3       1 ACP        -0.8016
      5 PB          1.4325   -1.1192   -6.2832 P.3       1 ACP         1.4874
      6 O1B         1.9145   -0.2900   -7.4509 O.co2     1 ACP        -0.8240
      7 O2B         1.6841   -2.6065   -6.1927 O.co2     1 ACP        -0.8240
      8 C3B        -0.3943   -0.8630   -6.1469 C.3       1 ACP        -0.6510
      9 PA          3.3384   -0.0297   -4.3151 P.3       1 ACP         1.7966
     10 O1A         4.1258    0.9106   -5.1809 O.2       1 ACP        -0.8436
     11 O2A         4.0360   -1.4716   -4.0883 O.3       1 ACP        -0.8190
     12 O3A         1.8718   -0.4013   -4.8868 O.3       1 ACP        -0.7947
     13 O5'         3.0190    0.5130   -2.8246 O.3       1 ACP        -0.5846
     14 C5'         2.2816   -0.2918   -1.9206 C.3       1 ACP         0.2005
     15 C4'         2.7248    0.0226   -0.4980 C.3       1 ACP         0.0711
     16 O4'         2.4697    1.4219   -0.2462 O.3       1 ACP        -0.4064
     17 C3'         1.9404   -0.7419    0.5596 C.3       1 ACP         0.0975
     18 O3'         2.7418   -0.8086    1.7389 O.3       1 ACP        -0.5957
     19 C2'         0.7477    0.1630    0.7858 C.3       1 ACP         0.1195
     20 O2'         0.1373   -0.0577    2.0407 O.3       1 ACP        -0.5845
     21 C1'         1.3733    1.5427    0.6747 C.3       1 ACP         0.4064
     22 N9          0.4520    2.5240    0.1767 N.pl3     1 ACP        -0.5630
     23 C8         -0.2172    2.5216   -0.9668 C.ar      1 ACP         0.2808
     24 N7         -1.0011    3.5855   -1.1321 N.pl3     1 ACP        -0.5040
     25 C5         -0.8184    4.3200   -0.0123 C.ar      1 ACP        -0.2807
     26 C6         -1.3349    5.5079    0.4144 C.ar      1 ACP         0.7712
     27 N6         -2.2567    6.1930   -0.4036 N.pl3     1 ACP        -0.9461
     28 N1         -0.9716    6.0291    1.6069 N.ar      1 ACP        -0.7457
     29 C2         -0.0765    5.3009    2.3312 C.ar      1 ACP         0.7201
     30 N3          0.4933    4.1191    2.0023 N.ar      1 ACP        -0.6849
     31 C4          0.0865    3.6675    0.8123 C.ar      1 ACP         0.6369
     32 HOG2        0.3103   -1.4687   -3.4094 H         1 ACP         0.4781
     33 HOG3       -1.4045   -3.8848   -4.4308 H         1 ACP         0.4781
     34 H3B1       -0.8123   -1.1525   -7.1177 H         1 ACP         0.1236
     35 H3B2       -0.5409    0.2184   -6.0463 H         1 ACP         0.1236
     36 HOA2        4.2237   -2.0356   -4.8687 H         1 ACP         0.4716
     37 H5'1        1.2149   -0.0786   -2.0446 H         1 ACP         0.0529
     38 H5'2        2.4640   -1.3459   -2.1539 H         1 ACP         0.0529
     39 H4'         3.8049   -0.1388   -0.4009 H         1 ACP         0.1213
     40 H3'         1.6783   -1.7629    0.2715 H         1 ACP         0.0524
     41 HO3'        2.2232   -1.2979    2.3953 H         1 ACP         0.4707
     42 H2'        -0.0011    0.0027    0.0003 H         1 ACP         0.0774
     43 HO2'       -0.1563   -0.9855    2.0596 H         1 ACP         0.4561
     44 H1'         1.7826    1.9024    1.6451 H         1 ACP         0.1559
     45 H8         -0.1423    1.7373   -1.6999 H         1 ACP         0.2754
     46 HN61       -2.4811    5.8206   -1.3042 H         1 ACP         0.4584
     47 HN62       -2.5986    7.0863   -0.1113 H         1 ACP         0.4584
     48 H2          0.2128    5.7222    3.2871 H         1 ACP         0.0892
     49 H49        -1.5947    3.7835   -1.9255 H         1 ACP         0.5039
@<TRIPOS>BOND
     1    1    2 2
     2    1    3 1
     3    1    4 1
     4    1    8 1
     5    3   32 1
     6    4   33 1
     7    5    6 2
     8    5    7 1
     9    5    8 1
    10    5   12 1
    11    8   34 1
    12    8   35 1
    13    9   10 2
    14    9   11 1
    15    9   12 1
    16    9   13 1
    17   11   36 1
    18   13   14 1
    19   14   15 1
    20   14   37 1
    21   14   38 1
    22   15   16 1
    23   15   17 1
    24   15   39 1
    25   16   21 1
    26   17   18 1
    27   17   19 1
    28   17   40 1
    29   18   41 1
    30   19   20 1
    31   19   21 1
    32   19   42 1
    33   20   43 1
    34   21   22 1
    35   21   44 1
    36   22   23 ar
    37   22   31 ar
    38   23   24 ar
    39   23   45 1
    40   24   25 ar
    41   24   49 1
    42   25   26 ar
    43   25   31 ar
    44   26   27 1
    45   26   28 ar
    46   27   46 1
    47   27   47 1
    48   28   29 ar
    49   29   30 ar
    50   29   48 1
    51   30   31 ar
@<TRIPOS>SUBSTRUCTURE
     1 ACP         1 GROUP 0 A     ****
@<TRIPOS>MOLECULE
[[5-(6-amino-7,8-dihydropurin-8-ylium-9-yl)-3,4-dihydroxy-tetrahydrofuran-2-yl]methoxy-hydroxy-phosphoryl]oxy-(phosphonomethyl)phosphinate
   49    51     1     0     0
SMALL
USER_CHARGES

@<TRIPOS>ATOM
      1 PG          3.1243    0.4517   -7.1205 P.3       1 ACP         1.6362
      2 O1G         3.8936    0.6536   -5.8498 O.2       1 ACP        -0.8691
      3 O2G         2.9484    1.7660   -8.0434 O.3       1 ACP        -0.8016
      4 O3G         3.7369   -0.6464   -8.1348 O.3       1 ACP        -0.8016
      5 PB          1.0204   -1.7062   -6.0250 P.3       1 ACP         1.4874
      6 O1B         1.6708   -2.8171   -6.8164 O.co2     1 ACP        -0.8240
      7 O2B        -0.4610   -1.6897   -5.7272 O.co2     1 ACP        -0.8240
      8 C3B         1.4255   -0.1161   -6.8789 C.3       1 ACP        -0.6510
      9 PA          2.1858   -2.4502   -3.4210 P.3       1 ACP         1.7966
     10 O1A         2.9584   -3.6795   -3.8027 O.2       1 ACP        -0.8436
     11 O2A         0.7319   -2.7483   -2.7769 O.3       1 ACP        -0.8190
     12 O3A         1.8605   -1.4518   -4.6510 O.3       1 ACP        -0.7947
     13 O5'         2.9195   -1.4814   -2.3528 O.3       1 ACP        -0.5846
     14 C5'         2.2816   -0.2918   -1.9206 C.3       1 ACP         0.2005
     15 C4'         2.7248    0.0226   -0.4980 C.3       1 ACP         0.0711
     16 O4'         2.4697    1.4219   -0.2462 O.3       1 ACP        -0.4064
     17 C3'         1.9404   -0.7419    0.5596 C.3       1 ACP         0.0975
     18 O3'         2.7418   -0.8086    1.7389 O.3       1 ACP        -0.5957
     19 C2'         0.7477    0.1630    0.7858 C.3       1 ACP         0.1195
     20 O2'         0.1373   -0.0577    2.0407 O.3       1 ACP        -0.5845
     21 C1'         1.3733    1.5427    0.6747 C.3       1 ACP         0.4064
     22 N9          0.4520    2.5240    0.1767 N.pl3     1 ACP        -0.5630
     23 C8          0.1928    2.8484   -1.0815 C.ar      1 ACP         0.2808
     24 N7         -0.7248    3.8048   -1.2110 N.pl3     1 ACP        -0.5040
     25 C5         -1.0765    4.1129    0.0571 C.ar      1 ACP        -0.2807
     26 C6         -1.9614    5.0063    0.5851 C.ar      1 ACP         0.7712
     27 N6         -2.7145    5.8254   -0.2810 N.pl3     1 ACP        -0.9461
     28 N1         -2.1199    5.1113    1.9228 N.ar      1 ACP        -0.7457
     29 C2         -1.3522    4.2822    2.6839 C.ar      1 ACP         0.7201
     30 N3         -0.4501    3.3660    2.2638 N.ar      1 ACP        -0.6849
     31 C4         -0.3487    3.3198    0.9322 C.ar      1 ACP         0.6369
     32 HOG2        2.4533    1.6918   -8.8870 H         1 ACP         0.4781
     33 HOG3        4.6427   -0.5146   -8.4875 H         1 ACP         0.4781
     34 H3B1        0.9014    0.6677   -6.3206 H         1 ACP         0.1236
     35 H3B2        0.9531   -0.1746   -7.8661 H         1 ACP         0.1236
     36 HOA2        0.0691   -3.2383   -3.3087 H         1 ACP         0.4716
     37 H5'1        2.5577    0.5244   -2.5962 H         1 ACP         0.0529
     38 H5'2        1.1970   -0.4361   -1.9603 H         1 ACP         0.0529
     39 H4'         3.8049   -0.1388   -0.4009 H         1 ACP         0.1213
     40 H3'         1.6783   -1.7629    0.2715 H         1 ACP         0.0524
     41 HO3'        2.2232   -1.2979    2.3953 H         1 ACP         0.4707
     42 H2'        -0.0011    0.0027    0.0003 H         1 ACP         0.0774
     43 HO2'       -0.1563   -0.9855    2.0596 H         1 ACP         0.4561
     44 H1'         1.7826    1.9024    1.6451 H         1 ACP         0.1559
     45 H8          0.6728    2.3873   -1.9272 H         1 ACP         0.2754
     46 HN61       -2.5537    5.7714   -1.2667 H         1 ACP         0.4584
     47 HN62       -3.3283    6.5126    0.1081 H         1 ACP         0.4584
     48 H2         -1.4818    4.3694    3.7565 H         1 ACP         0.0892
     49 H49        -1.0701    4.2005   -2.0743 H         1 ACP         0.5039
@<TRIPOS>BOND
     1    1    2 2
     2    1    3 1
     3    1    4 1
     4    1    8 1
     5    3   32 1
     6    4   33 1
     7    5    6 2
     8    5    7 1
     9    5    8 1
    10    5   12 1
    11    8   34 1
    12    8   35 1
    13    9   10 2
    14    9   11 1
    15    9   12 1
    16    9   13 1
    17   11   36 1
    18   13   14 1
    19   14   15 1
    20   14   37 1
    21   14   38 1
    22   15   16 1
    23   15   17 1
    24   15   39 1
    25   16   21 1
    26   17   18 1
    27   17   19 1
    28   17   40 1
    29   18   41 1
    30   19   20 1
    31   19   21 1
    32   19   42 1
    33   20   43 1
    34   21   22 1
    35   21   44 1
    36   22   23 ar
    37   22   31 ar
    38   23   24 ar
    39   23   45 1
    40   24   25 ar
    41   24   49 1
    42   25   26 ar
    43   25   31 ar
    44   26   27 1
    45   26   28 ar
    46   27   46 1
    47   27   47 1
    48   28   29 ar
    49   29   30 ar
    50   29   48 1
    51   30   31 ar
@<TRIPOS>SUBSTRUCTURE
     1 ACP         1 GROUP 0 A     ****
@<TRIPOS>MOLECULE
[[5-(6-amino-7,8-dihydropurin-8-ylium-9-yl)-3,4-dihydroxy-tetrahydrofuran-2-yl]methoxy-hydroxy-phosphoryl]oxy-(phosphonomethyl)phosphinate
   49    51     1     0     0
SMALL
USER_CHARGES

@<TRIPOS>ATOM
      1 PG          6.4218    0.4044   -6.1916 P.3       1 ACP         1.6362
      2 O1G         7.4090   -0.5891   -6.7262 O.2       1 ACP        -0.8691
      3 O2G         6.7704    1.9553   -6.4797 O.3       1 ACP        -0.8016
      4 O3G         4.9111    0.2452   -6.7415 O.3       1 ACP        -0.8016
      5 PB          5.6296   -1.1607   -3.5072 P.3       1 ACP         1.4874
      6 O1B         5.5803   -0.8227   -2.0352 O.co2     1 ACP        -0.8240
      7 O2B         6.4275   -2.3284   -4.0395 O.co2     1 ACP        -0.8240
      8 C3B         6.2124    0.3525   -4.3971 C.3       1 ACP        -0.6510
      9 PA          2.8566   -2.1440   -3.6977 P.3       1 ACP         1.7966
     10 O1A         3.0940   -3.6176   -3.8586 O.2       1 ACP        -0.8436
     11 O2A         1.6428   -1.5611   -4.5945 O.3       1 ACP        -0.8190
     12 O3A         4.1138   -1.2120   -4.1056 O.3       1 ACP        -0.7947
     13 O5'         2.5233   -1.6622   -2.1894 O.3       1 ACP        -0.5846
     14 C5'         2.2816   -0.2918   -1.9206 C.3       1 ACP         0.2005
     15 C4'         2.7248    0.0226   -0.4980 C.3       1 ACP         0.0711
     16 O4'         2.4697    1.4219   -0.2462 O.3       1 ACP        -0.4064
     17 C3'         1.9404   -0.7419    0.5596 C.3       1 ACP         0.0975
     18 O3'         2.7418   -0.8086    1.7389 O.3       1 ACP        -0.5957
     19 C2'         0.7477    0.1630    0.7858 C.3       1 ACP         0.1195
     20 O2'         0.1373   -0.0577    2.0407 O.3       1 ACP        -0.5845
     21 C1'         1.3733    1.5427    0.6747 C.3       1 ACP         0.4064
     22 N9          0.4520    2.5240    0.1767 N.pl3     1 ACP        -0.5630
     23 C8          0.1928    2.8484   -1.0815 C.ar      1 ACP         0.2808
     24 N7         -0.7248    3.8048   -1.2110 N.pl3     1 ACP        -0.5040
     25 C5         -1.0765    4.1129    0.0571 C.ar      1 ACP        -0.2807
     26 C6         -1.9614    5.0063    0.5851 C.ar      1 ACP         0.7712
     27 N6         -2.7145    5.8254   -0.2810 N.pl3     1 ACP        -0.9461
     28 N1         -2.1199    5.1113    1.9228 N.ar      1 ACP        -0.7457
     29 C2         -1.3522    4.2822    2.6839 C.ar      1 ACP         0.7201
     30 N3         -0.4501    3.3660    2.2638 N.ar      1 ACP        -0.6849
     31 C4         -0.3487    3.3198    0.9322 C.ar      1 ACP         0.6369
     32 HOG2        6.8510    2.2598   -7.4087 H         1 ACP         0.4781
     33 HOG3        4.2222    0.8681   -6.4258 H         1 ACP         0.4781
     34 H3B1        7.1810    0.6087   -3.9533 H         1 ACP         0.1236
     35 H3B2        5.5146    1.1518   -4.1227 H         1 ACP         0.1236
     36 HOA2        1.6914   -1.6457   -5.5706 H         1 ACP         0.4716
     37 H5'1        2.8428    0.3150   -2.6387 H         1 ACP         0.0529
     38 H5'2        1.2124   -0.0896   -2.0417 H         1 ACP         0.0529
     39 H4'         3.8049   -0.1388   -0.4009 H         1 ACP         0.1213
     40 H3'         1.6783   -1.7629    0.2715 H         1 ACP         0.0524
     41 HO3'        2.2232   -1.2979    2.3953 H         1 ACP         0.4707
     42 H2'        -0.0011    0.0027    0.0003 H         1 ACP         0.0774
     43 HO2'       -0.6141    0.5574    2.1082 H         1 ACP         0.4561
     44 H1'         1.7826    1.9024    1.6451 H         1 ACP         0.1559
     45 H8          0.6728    2.3873   -1.9272 H         1 ACP         0.2754
     46 HN61       -2.5537    5.7714   -1.2667 H         1 ACP         0.4584
     47 HN62       -3.3283    6.5126    0.1081 H         1 ACP         0.4584
     48 H2         -1.4818    4.3694    3.7565 H         1 ACP         0.0892
     49 H49        -1.0701    4.2005   -2.0743 H         1 ACP         0.5039
@<TRIPOS>BOND
     1    1    2 2
     2    1    3 1
     3    1    4 1
     4    1    8 1
     5    3   32 1
     6    4   33 1
     7    5    6 2
     8    5    7 1
     9    5    8 1
    10    5   12 1
    11    8   34 1
    12    8   35 1
    13    9   10 2
    14    9   11 1
    15    9   12 1
    16    9   13 1
    17   11   36 1
    18   13   14 1
    19   14   15 1
    20   14   37 1
    21   14   38 1
    22   15   16 1
    23   15   17 1
    24   15   39 1
    25   16   21 1
    26   17   18 1
    27   17   19 1
    28   17   40 1
    29   18   41 1
    30   19   20 1
    31   19   21 1
    32   19   42 1
    33   20   43 1
    34   21   22 1
    35   21   44 1
    36   22   23 ar
    37   22   31 ar
    38   23   24 ar
    39   23   45 1
    40   24   25 ar
    41   24   49 1
    42   25   26 ar
    43   25   31 ar
    44   26   27 1
    45   26   28 ar
    46   27   46 1
    47   27   47 1
    48   28   29 ar
    49   29   30 ar
    50   29   48 1
    51   30   31 ar
@<TRIPOS>SUBSTRUCTURE
     1 ACP         1 GROUP 0 A     ****
@<TRIPOS>MOLECULE
[[5-(6-amino-7,8-dihydropurin-8-ylium-9-yl)-3,4-dihydroxy-tetrahydrofuran-2-yl]methoxy-hydroxy-phosphoryl]oxy-(phosphonomethyl)phosphinate
   49    51     1     0     0
SMALL
USER_CHARGES

@<TRIPOS>ATOM
      1 PG         -6.1179   -5.8006    4.1611 P.3       1 ACP         1.6362
      2 O1G        -6.7782   -7.1321    3.9645 O.2       1 ACP        -0.8691
      3 O2G        -7.1041   -4.5895    4.5743 O.3       1 ACP        -0.8016
      4 O3G        -4.9672   -5.7580    5.2941 O.3       1 ACP        -0.8016
      5 PB         -3.8844   -6.0734    1.8763 P.3       1 ACP         1.4874
      6 O1B        -3.4395   -5.2401    0.6968 O.co2     1 ACP        -0.8240
      7 O2B        -4.3166   -7.5138    1.7280 O.co2     1 ACP        -0.8240
      8 C3B        -5.2730   -5.1660    2.6948 C.3       1 ACP        -0.6510
      9 PA         -1.2164   -6.3318    3.1041 P.3       1 ACP         1.7966
     10 O1A        -0.9212   -7.7774    2.8272 O.2       1 ACP        -0.8436
     11 O2A        -0.7238   -5.8156    4.5561 O.3       1 ACP        -0.8190
     12 O3A        -2.7876   -5.9491    3.0762 O.3       1 ACP        -0.7947
     13 O5'        -0.5702   -5.2849    2.0531 O.3       1 ACP        -0.5846
     14 C5'        -0.7840   -3.8935    2.2172 C.3       1 ACP         0.2005
     15 C4'        -0.0724   -3.1466    1.1027 C.3       1 ACP         0.0711
     16 O4'        -0.8674   -3.1929   -0.0945 O.3       1 ACP        -0.4064
     17 C3'         0.1338   -1.6715    1.4027 C.3       1 ACP         0.0975
     18 O3'         1.2893   -1.4445    2.1808 O.3       1 ACP        -0.5957
     19 C2'         0.2158   -1.0724    0.0128 C.3       1 ACP         0.1195
     20 O2'         1.5141   -1.2448   -0.5513 O.3       1 ACP        -0.5845
     21 C1'        -0.7897   -1.9176   -0.7583 C.3       1 ACP         0.4064
     22 N9         -2.1040   -1.3333   -0.7704 N.pl3     1 ACP        -0.5630
     23 C8         -3.0822   -1.4850    0.1102 C.ar      1 ACP         0.2808
     24 N7         -4.1844   -0.7999   -0.1888 N.pl3     1 ACP        -0.5040
     25 C5         -3.8875   -0.1651   -1.3445 C.ar      1 ACP        -0.2807
     26 C6         -4.5941    0.6799   -2.1486 C.ar      1 ACP         0.7712
     27 N6         -5.9138    1.0274   -1.7939 N.pl3     1 ACP        -0.9461
     28 N1         -4.0421    1.1824   -3.2748 N.ar      1 ACP        -0.7457
     29 C2         -2.7637    0.7937   -3.5405 C.ar      1 ACP         0.7201
     30 N3         -1.9788   -0.0343   -2.8140 N.ar      1 ACP        -0.6849
     31 C4         -2.5915   -0.4902   -1.7174 C.ar      1 ACP         0.6369
     32 HOG2       -7.6225   -4.6605    5.4040 H         1 ACP         0.4781
     33 HOG3       -4.5006   -4.9124    5.4662 H         1 ACP         0.4781
     34 H3B1       -6.0362   -5.0223    1.9215 H         1 ACP         0.1236
     35 H3B2       -4.8803   -4.1735    2.9434 H         1 ACP         0.1236
     36 HOA2        0.2301   -5.8662    4.7788 H         1 ACP         0.4716
     37 H5'1       -1.8600   -3.6935    2.1849 H         1 ACP         0.0529
     38 H5'2       -0.3935   -3.5870    3.1930 H         1 ACP         0.0529
     39 H4'         0.8886   -3.6448    0.8780 H         1 ACP         0.1213
     40 H3'        -0.7374   -1.2358    1.9870 H         1 ACP         0.0524
     41 HO3'        1.3408   -0.4870    2.3219 H         1 ACP         0.4707
     42 H2'        -0.0384   -0.0310    0.0096 H         1 ACP         0.0774
     43 HO2'        2.1463   -0.7958    0.0370 H         1 ACP         0.4561
     44 H1'        -0.4769   -2.1002   -1.8093 H         1 ACP         0.1559
     45 H8         -3.0031   -2.1011    0.9891 H         1 ACP         0.2754
     46 HN61       -6.3271    0.6117   -0.9836 H         1 ACP         0.4584
     47 HN62       -6.4471    1.6092   -2.4083 H         1 ACP         0.4584
     48 H2         -2.3243    1.1986   -4.4449 H         1 ACP         0.0892
     49 H49        -5.0436   -0.7722    0.3425 H         1 ACP         0.5039
@<TRIPOS>BOND
     1    1    2 2
     2    1    3 1
     3    1    4 1
     4    1    8 1
     5    3   32 1
     6    4   33 1
     7    5    6 2
     8    5    7 1
     9    5    8 1
    10    5   12 1
    11    8   34 1
    12    8   35 1
    13    9   10 2
    14    9   11 1
    15    9   12 1
    16    9   13 1
    17   11   36 1
    18   13   14 1
    19   14   15 1
    20   14   37 1
    21   14   38 1
    22   15   16 1
    23   15   17 1
    24   15   39 1
    25   16   21 1
    26   17   18 1
    27   17   19 1
    28   17   40 1
    29   18   41 1
    30   19   20 1
    31   19   21 1
    32   19   42 1
    33   20   43 1
    34   21   22 1
    35   21   44 1
    36   22   23 ar
    37   22   31 ar
    38   23   24 ar
    39   23   45 1
    40   24   25 ar
    41   24   49 1
    42   25   26 ar
    43   25   31 ar
    44   26   27 1
    45   26   28 ar
    46   27   46 1
    47   27   47 1
    48   28   29 ar
    49   29   30 ar
    50   29   48 1
    51   30   31 ar
@<TRIPOS>SUBSTRUCTURE
     1 ACP         1 GROUP 0 A     ****
@<TRIPOS>MOLECULE
[[5-(6-amino-7,8-dihydropurin-8-ylium-9-yl)-3,4-dihydroxy-tetrahydrofuran-2-yl]methoxy-hydroxy-phosphoryl]oxy-(phosphonomethyl)phosphinate
   49    51     1     0     0
SMALL
USER_CHARGES

@<TRIPOS>ATOM
      1 PG         -0.0253    3.5541   -4.7823 P.3       1 ACP         1.6362
      2 O1G         0.7618    4.4284   -5.7115 O.2       1 ACP        -0.8691
      3 O2G         0.7170    3.1595   -3.4027 O.3       1 ACP        -0.8016
      4 O3G        -1.4409    4.1596   -4.2932 O.3       1 ACP        -0.8016
      5 PB          0.7713    0.7225   -6.0591 P.3       1 ACP         1.4874
      6 O1B         1.5728    1.3852   -7.1555 O.co2     1 ACP        -0.8240
      7 O2B         0.0508   -0.5893   -6.2681 O.co2     1 ACP        -0.8240
      8 C3B        -0.4842    1.9511   -5.4798 C.3       1 ACP        -0.6510
      9 PA          3.0853   -0.0761   -4.4159 P.3       1 ACP         1.7966
     10 O1A         4.2171    0.4133   -5.2721 O.2       1 ACP        -0.8436
     11 O2A         2.7514   -1.6500   -4.5859 O.3       1 ACP        -0.8190
     12 O3A         1.6668    0.6474   -4.6987 O.3       1 ACP        -0.7947
     13 O5'         3.2874    0.1331   -2.8242 O.3       1 ACP        -0.5846
     14 C5'         2.2816   -0.2918   -1.9206 C.3       1 ACP         0.2005
     15 C4'         2.7248    0.0226   -0.4980 C.3       1 ACP         0.0711
     16 O4'         2.4697    1.4219   -0.2462 O.3       1 ACP        -0.4064
     17 C3'         1.9404   -0.7419    0.5596 C.3       1 ACP         0.0975
     18 O3'         2.7418   -0.8086    1.7389 O.3       1 ACP        -0.5957
     19 C2'         0.7477    0.1630    0.7858 C.3       1 ACP         0.1195
     20 O2'         0.1373   -0.0577    2.0407 O.3       1 ACP        -0.5845
     21 C1'         1.3733    1.5427    0.6747 C.3       1 ACP         0.4064
     22 N9          0.4520    2.5240    0.1767 N.pl3     1 ACP        -0.5630
     23 C8         -0.8252    2.3702   -0.1405 C.ar      1 ACP         0.2808
     24 N7         -1.4086    3.4861   -0.5739 N.pl3     1 ACP        -0.5040
     25 C5         -0.4324    4.4197   -0.5299 C.ar      1 ACP        -0.2807
     26 C6         -0.4006    5.7465   -0.8438 C.ar      1 ACP         0.7712
     27 N6         -1.5714    6.3708   -1.3211 N.pl3     1 ACP        -0.9461
     28 N1          0.7371    6.4615   -0.7020 N.ar      1 ACP        -0.7457
     29 C2          1.8196    5.7785   -0.2355 C.ar      1 ACP         0.7201
     30 N3          1.8948    4.4713    0.1036 N.ar      1 ACP        -0.6849
     31 C4          0.7337    3.8311   -0.0629 C.ar      1 ACP         0.6369
     32 HOG2        1.5644    2.6671   -3.4427 H         1 ACP         0.4781
     33 HOG3       -1.4502    5.0073   -3.7997 H         1 ACP         0.4781
     34 H3B1       -1.0866    1.4332   -4.7250 H         1 ACP         0.1236
     35 H3B2       -1.1404    2.1395   -6.3371 H         1 ACP         0.1236
     36 HOA2        3.4497   -2.3077   -4.3811 H         1 ACP         0.4716
     37 H5'1        1.3494    0.2322   -2.1552 H         1 ACP         0.0529
     38 H5'2        2.1260   -1.3686   -2.0435 H         1 ACP         0.0529
     39 H4'         3.8049   -0.1388   -0.4009 H         1 ACP         0.1213
     40 H3'         1.6783   -1.7629    0.2715 H         1 ACP         0.0524
     41 HO3'        2.2232   -1.2979    2.3953 H         1 ACP         0.4707
     42 H2'        -0.0011    0.0027    0.0003 H         1 ACP         0.0774
     43 HO2'       -0.1563   -0.9855    2.0596 H         1 ACP         0.4561
     44 H1'         1.7826    1.9024    1.6451 H         1 ACP         0.1559
     45 H8         -1.3516    1.4351   -0.0582 H         1 ACP         0.2754
     46 HN61       -2.3936    5.8204   -1.4664 H         1 ACP         0.4584
     47 HN62       -1.5348    7.3319   -1.5955 H         1 ACP         0.4584
     48 H2          2.7305    6.3553   -0.1232 H         1 ACP         0.0892
     49 H49        -2.3700    3.5931   -0.8665 H         1 ACP         0.5039
@<TRIPOS>BOND
     1    1    2 2
     2    1    3 1
     3    1    4 1
     4    1    8 1
     5    3   32 1
     6    4   33 1
     7    5    6 2
     8    5    7 1
     9    5    8 1
    10    5   12 1
    11    8   34 1
    12    8   35 1
    13    9   10 2
    14    9   11 1
    15    9   12 1
    16    9   13 1
    17   11   36 1
    18   13   14 1
    19   14   15 1
    20   14   37 1
    21   14   38 1
    22   15   16 1
    23   15   17 1
    24   15   39 1
    25   16   21 1
    26   17   18 1
    27   17   19 1
    28   17   40 1
    29   18   41 1
    30   19   20 1
    31   19   21 1
    32   19   42 1
    33   20   43 1
    34   21   22 1
    35   21   44 1
    36   22   23 ar
    37   22   31 ar
    38   23   24 ar
    39   23   45 1
    40   24   25 ar
    41   24   49 1
    42   25   26 ar
    43   25   31 ar
    44   26   27 1
    45   26   28 ar
    46   27   46 1
    47   27   47 1
    48   28   29 ar
    49   29   30 ar
    50   29   48 1
    51   30   31 ar
@<TRIPOS>SUBSTRUCTURE
     1 ACP         1 GROUP 0 A     ****
@<TRIPOS>MOLECULE
[[5-(6-amino-7,8-dihydropurin-8-ylium-9-yl)-3,4-dihydroxy-tetrahydrofuran-2-yl]methoxy-hydroxy-phosphoryl]oxy-(phosphonomethyl)phosphinate
   49    51     1     0     0
SMALL
USER_CHARGES

@<TRIPOS>ATOM
      1 PG         -0.6168   -1.4764   -7.0257 P.3       1 ACP         1.6362
      2 O1G        -1.9845   -2.0833   -7.1191 O.2       1 ACP        -0.8691
      3 O2G         0.5817   -2.5096   -6.6997 O.3       1 ACP        -0.8016
      4 O3G        -0.1071   -0.7085   -8.3525 O.3       1 ACP        -0.8016
      5 PB          1.1419    0.6718   -5.4211 P.3       1 ACP         1.4874
      6 O1B         0.8969    1.6307   -4.2792 O.co2     1 ACP        -0.8240
      7 O2B         1.6693    1.1317   -6.7605 O.co2     1 ACP        -0.8240
      8 C3B        -0.4464   -0.2225   -5.7353 C.3       1 ACP        -0.6510
      9 PA          3.4946   -0.6448   -4.2278 P.3       1 ACP         1.7966
     10 O1A         4.5894   -0.1038   -5.1010 O.2       1 ACP        -0.8436
     11 O2A         3.6755   -2.1987   -3.8153 O.3       1 ACP        -0.8190
     12 O3A         2.0199   -0.5952   -4.8900 O.3       1 ACP        -0.7947
     13 O5'         3.2874    0.1331   -2.8242 O.3       1 ACP        -0.5846
     14 C5'         2.2816   -0.2918   -1.9206 C.3       1 ACP         0.2005
     15 C4'         2.7248    0.0226   -0.4980 C.3       1 ACP         0.0711
     16 O4'         2.4697    1.4219   -0.2462 O.3       1 ACP        -0.4064
     17 C3'         1.9404   -0.7419    0.5596 C.3       1 ACP         0.0975
     18 O3'         2.7418   -0.8086    1.7389 O.3       1 ACP        -0.5957
     19 C2'         0.7477    0.1630    0.7858 C.3       1 ACP         0.1195
     20 O2'         0.1373   -0.0577    2.0407 O.3       1 ACP        -0.5845
     21 C1'         1.3733    1.5427    0.6747 C.3       1 ACP         0.4064
     22 N9          0.4520    2.5240    0.1767 N.pl3     1 ACP        -0.5630
     23 C8          0.1928    2.8484   -1.0815 C.ar      1 ACP         0.2808
     24 N7         -0.7248    3.8048   -1.2110 N.pl3     1 ACP        -0.5040
     25 C5         -1.0765    4.1129    0.0571 C.ar      1 ACP        -0.2807
     26 C6         -1.9614    5.0063    0.5851 C.ar      1 ACP         0.7712
     27 N6         -2.7145    5.8254   -0.2810 N.pl3     1 ACP        -0.9461
     28 N1         -2.1199    5.1113    1.9228 N.ar      1 ACP        -0.7457
     29 C2         -1.3522    4.2822    2.6839 C.ar      1 ACP         0.7201
     30 N3         -0.4501    3.3660    2.2638 N.ar      1 ACP        -0.6849
     31 C4         -0.3487    3.3198    0.9322 C.ar      1 ACP         0.6369
     32 HOG2        1.4980   -2.1670   -6.6271 H         1 ACP         0.4781
     33 HOG3       -0.0283   -1.2105   -9.1915 H         1 ACP         0.4781
     34 H3B1       -1.1932    0.5528   -5.9405 H         1 ACP         0.1236
     35 H3B2       -0.7241   -0.6886   -4.7830 H         1 ACP         0.1236
     36 HOA2        4.4752   -2.4663   -3.3143 H         1 ACP         0.4716
     37 H5'1        1.3494    0.2322   -2.1552 H         1 ACP         0.0529
     38 H5'2        2.1260   -1.3686   -2.0435 H         1 ACP         0.0529
     39 H4'         3.8049   -0.1388   -0.4009 H         1 ACP         0.1213
     40 H3'         1.6783   -1.7629    0.2715 H         1 ACP         0.0524
     41 HO3'        2.2232   -1.2979    2.3953 H         1 ACP         0.4707
     42 H2'        -0.0011    0.0027    0.0003 H         1 ACP         0.0774
     43 HO2'       -0.6141    0.5574    2.1082 H         1 ACP         0.4561
     44 H1'         1.7826    1.9024    1.6451 H         1 ACP         0.1559
     45 H8          0.6728    2.3873   -1.9272 H         1 ACP         0.2754
     46 HN61       -2.5537    5.7714   -1.2667 H         1 ACP         0.4584
     47 HN62       -3.3283    6.5126    0.1081 H         1 ACP         0.4584
     48 H2         -1.4818    4.3694    3.7565 H         1 ACP         0.0892
     49 H49        -1.0701    4.2005   -2.0743 H         1 ACP         0.5039
@<TRIPOS>BOND
     1    1    2 2
     2    1    3 1
     3    1    4 1
     4    1    8 1
     5    3   32 1
     6    4   33 1
     7    5    6 2
     8    5    7 1
     9    5    8 1
    10    5   12 1
    11    8   34 1
    12    8   35 1
    13    9   10 2
    14    9   11 1
    15    9   12 1
    16    9   13 1
    17   11   36 1
    18   13   14 1
    19   14   15 1
    20   14   37 1
    21   14   38 1
    22   15   16 1
    23   15   17 1
    24   15   39 1
    25   16   21 1
    26   17   18 1
    27   17   19 1
    28   17   40 1
    29   18   41 1
    30   19   20 1
    31   19   21 1
    32   19   42 1
    33   20   43 1
    34   21   22 1
    35   21   44 1
    36   22   23 ar
    37   22   31 ar
    38   23   24 ar
    39   23   45 1
    40   24   25 ar
    41   24   49 1
    42   25   26 ar
    43   25   31 ar
    44   26   27 1
    45   26   28 ar
    46   27   46 1
    47   27   47 1
    48   28   29 ar
    49   29   30 ar
    50   29   48 1
    51   30   31 ar
@<TRIPOS>SUBSTRUCTURE
     1 ACP         1 GROUP 0 A     ****
@<TRIPOS>MOLECULE
[[5-(6-amino-7,8-dihydropurin-8-ylium-9-yl)-3,4-dihydroxy-tetrahydrofuran-2-yl]methoxy-hydroxy-phosphoryl]oxy-(phosphonomethyl)phosphinate
   49    51     1     0     0
SMALL
USER_CHARGES

@<TRIPOS>ATOM
      1 PG         -2.3519   -8.0721    2.0582 P.3       1 ACP         1.6362
      2 O1G        -3.2735   -6.9944    2.5446 O.2       1 ACP        -0.8691
      3 O2G        -3.0436   -9.5052    1.7794 O.3       1 ACP        -0.8016
      4 O3G        -1.5751   -7.7495    0.6789 O.3       1 ACP        -0.8016
      5 PB          0.2440   -7.2259    3.7400 P.3       1 ACP         1.4874
      6 O1B         0.9518   -6.7368    2.4977 O.co2     1 ACP        -0.8240
      7 O2B         0.9908   -7.8195    4.9119 O.co2     1 ACP        -0.8240
      8 C3B        -1.0099   -8.4741    3.2000 C.3       1 ACP        -0.6510
      9 PA         -0.5051   -4.5580    4.7469 P.3       1 ACP         1.7966
     10 O1A         0.4194   -4.4346    5.9232 O.2       1 ACP        -0.8436
     11 O2A        -1.9864   -3.9569    4.9955 O.3       1 ACP        -0.8190
     12 O3A        -0.7854   -6.0774    4.2686 O.3       1 ACP        -0.7947
     13 O5'         0.0089   -3.8407    3.3906 O.3       1 ACP        -0.5846
     14 C5'        -0.7840   -3.8935    2.2172 C.3       1 ACP         0.2005
     15 C4'        -0.0724   -3.1466    1.1027 C.3       1 ACP         0.0711
     16 O4'        -0.8674   -3.1929   -0.0945 O.3       1 ACP        -0.4064
     17 C3'         0.1338   -1.6715    1.4027 C.3       1 ACP         0.0975
     18 O3'         1.2893   -1.4445    2.1808 O.3       1 ACP        -0.5957
     19 C2'         0.2158   -1.0724    0.0128 C.3       1 ACP         0.1195
     20 O2'         1.5141   -1.2448   -0.5513 O.3       1 ACP        -0.5845
     21 C1'        -0.7897   -1.9176   -0.7583 C.3       1 ACP         0.4064
     22 N9         -2.1040   -1.3333   -0.7704 N.pl3     1 ACP        -0.5630
     23 C8         -3.0822   -1.4850    0.1102 C.ar      1 ACP         0.2808
     24 N7         -4.1844   -0.7999   -0.1888 N.pl3     1 ACP        -0.5040
     25 C5         -3.8875   -0.1651   -1.3445 C.ar      1 ACP        -0.2807
     26 C6         -4.5941    0.6799   -2.1486 C.ar      1 ACP         0.7712
     27 N6         -5.9138    1.0274   -1.7939 N.pl3     1 ACP        -0.9461
     28 N1         -4.0421    1.1824   -3.2748 N.ar      1 ACP        -0.7457
     29 C2         -2.7637    0.7937   -3.5405 C.ar      1 ACP         0.7201
     30 N3         -1.9788   -0.0343   -2.8140 N.ar      1 ACP        -0.6849
     31 C4         -2.5915   -0.4902   -1.7174 C.ar      1 ACP         0.6369
     32 HOG2       -2.4875  -10.2473    1.4595 H         1 ACP         0.4781
     33 HOG3       -2.0988   -7.5759   -0.1322 H         1 ACP         0.4781
     34 H3B1       -1.4724   -8.8531    4.1184 H         1 ACP         0.1236
     35 H3B2       -0.4418   -9.3034    2.7634 H         1 ACP         0.1236
     36 HOA2       -2.0810   -3.0066    5.2194 H         1 ACP         0.4716
     37 H5'1       -0.9362   -4.9413    1.9386 H         1 ACP         0.0529
     38 H5'2       -1.7563   -3.4348    2.4248 H         1 ACP         0.0529
     39 H4'         0.8886   -3.6448    0.8780 H         1 ACP         0.1213
     40 H3'        -0.7374   -1.2358    1.9870 H         1 ACP         0.0524
     41 HO3'        1.1626   -1.9325    3.0084 H         1 ACP         0.4707
     42 H2'        -0.0384   -0.0310    0.0096 H         1 ACP         0.0774
     43 HO2'        2.1463   -0.7958    0.0370 H         1 ACP         0.4561
     44 H1'        -0.4769   -2.1002   -1.8093 H         1 ACP         0.1559
     45 H8         -3.0031   -2.1011    0.9891 H         1 ACP         0.2754
     46 HN61       -6.3271    0.6117   -0.9836 H         1 ACP         0.4584
     47 HN62       -6.4471    1.6092   -2.4083 H         1 ACP         0.4584
     48 H2         -2.3243    1.1986   -4.4449 H         1 ACP         0.0892
     49 H49        -5.0436   -0.7722    0.3425 H         1 ACP         0.5039
@<TRIPOS>BOND
     1    1    2 2
     2    1    3 1
     3    1    4 1
     4    1    8 1
     5    3   32 1
     6    4   33 1
     7    5    6 2
     8    5    7 1
     9    5    8 1
    10    5   12 1
    11    8   34 1
    12    8   35 1
    13    9   10 2
    14    9   11 1
    15    9   12 1
    16    9   13 1
    17   11   36 1
    18   13   14 1
    19   14   15 1
    20   14   37 1
    21   14   38 1
    22   15   16 1
    23   15   17 1
    24   15   39 1
    25   16   21 1
    26   17   18 1
    27   17   19 1
    28   17   40 1
    29   18   41 1
    30   19   20 1
    31   19   21 1
    32   19   42 1
    33   20   43 1
    34   21   22 1
    35   21   44 1
    36   22   23 ar
    37   22   31 ar
    38   23   24 ar
    39   23   45 1
    40   24   25 ar
    41   24   49 1
    42   25   26 ar
    43   25   31 ar
    44   26   27 1
    45   26   28 ar
    46   27   46 1
    47   27   47 1
    48   28   29 ar
    49   29   30 ar
    50   29   48 1
    51   30   31 ar
@<TRIPOS>SUBSTRUCTURE
     1 ACP         1 GROUP 0 A     ****
@<TRIPOS>MOLECULE
[[5-(6-amino-7,8-dihydropurin-8-ylium-9-yl)-3,4-dihydroxy-tetrahydrofuran-2-yl]methoxy-hydroxy-phosphoryl]oxy-(phosphonomethyl)phosphinate
   49    51     1     0     0
SMALL
USER_CHARGES

@<TRIPOS>ATOM
      1 PG         -5.6223   -5.8901    1.2653 P.3       1 ACP         1.6362
      2 O1G        -5.8185   -7.3066    0.8154 O.2       1 ACP        -0.8691
      3 O2G        -4.3285   -5.1394    0.6549 O.3       1 ACP        -0.8016
      4 O3G        -6.8398   -4.8819    0.9319 O.3       1 ACP        -0.8016
      5 PB         -4.0269   -6.5050    3.9780 P.3       1 ACP         1.4874
      6 O1B        -4.1656   -7.9969    3.7811 O.co2     1 ACP        -0.8240
      7 O2B        -3.9816   -5.8742    5.3504 O.co2     1 ACP        -0.8240
      8 C3B        -5.4093   -5.6995    3.0498 C.3       1 ACP        -0.6510
      9 PA         -1.2164   -6.3318    3.1041 P.3       1 ACP         1.7966
     10 O1A        -0.9212   -7.7774    2.8272 O.2       1 ACP        -0.8436
     11 O2A        -0.7238   -5.8156    4.5561 O.3       1 ACP        -0.8190
     12 O3A        -2.7876   -5.9491    3.0762 O.3       1 ACP        -0.7947
     13 O5'        -0.5702   -5.2849    2.0531 O.3       1 ACP        -0.5846
     14 C5'        -0.7840   -3.8935    2.2172 C.3       1 ACP         0.2005
     15 C4'        -0.0724   -3.1466    1.1027 C.3       1 ACP         0.0711
     16 O4'        -0.8674   -3.1929   -0.0945 O.3       1 ACP        -0.4064
     17 C3'         0.1338   -1.6715    1.4027 C.3       1 ACP         0.0975
     18 O3'         1.2893   -1.4445    2.1808 O.3       1 ACP        -0.5957
     19 C2'         0.2158   -1.0724    0.0128 C.3       1 ACP         0.1195
     20 O2'         1.5141   -1.2448   -0.5513 O.3       1 ACP        -0.5845
     21 C1'        -0.7897   -1.9176   -0.7583 C.3       1 ACP         0.4064
     22 N9         -2.1040   -1.3333   -0.7704 N.pl3     1 ACP        -0.5630
     23 C8         -3.0822   -1.4850    0.1102 C.ar      1 ACP         0.2808
     24 N7         -4.1844   -0.7999   -0.1888 N.pl3     1 ACP        -0.5040
     25 C5         -3.8875   -0.1651   -1.3445 C.ar      1 ACP        -0.2807
     26 C6         -4.5941    0.6799   -2.1486 C.ar      1 ACP         0.7712
     27 N6         -5.9138    1.0274   -1.7939 N.pl3     1 ACP        -0.9461
     28 N1         -4.0421    1.1824   -3.2748 N.ar      1 ACP        -0.7457
     29 C2         -2.7637    0.7937   -3.5405 C.ar      1 ACP         0.7201
     30 N3         -1.9788   -0.0343   -2.8140 N.ar      1 ACP        -0.6849
     31 C4         -2.5915   -0.4902   -1.7174 C.ar      1 ACP         0.6369
     32 HOG2       -3.4374   -5.5111    0.8283 H         1 ACP         0.4781
     33 HOG3       -7.0993   -4.7431   -0.0039 H         1 ACP         0.4781
     34 H3B1       -5.3208   -4.6257    3.2498 H         1 ACP         0.1236
     35 H3B2       -6.3339   -6.0383    3.5310 H         1 ACP         0.1236
     36 HOA2        0.2301   -5.8662    4.7788 H         1 ACP         0.4716
     37 H5'1       -1.8600   -3.6935    2.1849 H         1 ACP         0.0529
     38 H5'2       -0.3935   -3.5870    3.1930 H         1 ACP         0.0529
     39 H4'         0.8886   -3.6448    0.8780 H         1 ACP         0.1213
     40 H3'        -0.7374   -1.2358    1.9870 H         1 ACP         0.0524
     41 HO3'        1.3408   -0.4870    2.3219 H         1 ACP         0.4707
     42 H2'        -0.0384   -0.0310    0.0096 H         1 ACP         0.0774
     43 HO2'        2.1463   -0.7958    0.0370 H         1 ACP         0.4561
     44 H1'        -0.4769   -2.1002   -1.8093 H         1 ACP         0.1559
     45 H8         -3.0031   -2.1011    0.9891 H         1 ACP         0.2754
     46 HN61       -6.3271    0.6117   -0.9836 H         1 ACP         0.4584
     47 HN62       -6.4471    1.6092   -2.4083 H         1 ACP         0.4584
     48 H2         -2.3243    1.1986   -4.4449 H         1 ACP         0.0892
     49 H49        -5.0436   -0.7722    0.3425 H         1 ACP         0.5039
@<TRIPOS>BOND
     1    1    2 2
     2    1    3 1
     3    1    4 1
     4    1    8 1
     5    3   32 1
     6    4   33 1
     7    5    6 2
     8    5    7 1
     9    5    8 1
    10    5   12 1
    11    8   34 1
    12    8   35 1
    13    9   10 2
    14    9   11 1
    15    9   12 1
    16    9   13 1
    17   11   36 1
    18   13   14 1
    19   14   15 1
    20   14   37 1
    21   14   38 1
    22   15   16 1
    23   15   17 1
    24   15   39 1
    25   16   21 1
    26   17   18 1
    27   17   19 1
    28   17   40 1
    29   18   41 1
    30   19   20 1
    31   19   21 1
    32   19   42 1
    33   20   43 1
    34   21   22 1
    35   21   44 1
    36   22   23 ar
    37   22   31 ar
    38   23   24 ar
    39   23   45 1
    40   24   25 ar
    41   24   49 1
    42   25   26 ar
    43   25   31 ar
    44   26   27 1
    45   26   28 ar
    46   27   46 1
    47   27   47 1
    48   28   29 ar
    49   29   30 ar
    50   29   48 1
    51   30   31 ar
@<TRIPOS>SUBSTRUCTURE
     1 ACP         1 GROUP 0 A     ****
@<TRIPOS>MOLECULE
[[5-(6-amino-7,8-dihydropurin-8-ylium-9-yl)-3,4-dihydroxy-tetrahydrofuran-2-yl]methoxy-hydroxy-phosphoryl]oxy-(phosphonomethyl)phosphinate
   49    51     1     0     0
SMALL
USER_CHARGES

@<TRIPOS>ATOM
      1 PG         -3.2845   -3.3863    5.8825 P.3       1 ACP         1.6362
      2 O1G        -1.8071   -3.5687    6.0601 O.2       1 ACP        -0.8691
      3 O2G        -4.0965   -2.9537    7.2105 O.3       1 ACP        -0.8016
      4 O3G        -3.7198   -2.2769    4.7919 O.3       1 ACP        -0.8016
      5 PB         -3.7618   -5.7159    3.7313 P.3       1 ACP         1.4874
      6 O1B        -3.9990   -4.7147    2.6245 O.co2     1 ACP        -0.8240
      7 O2B        -4.4444   -7.0638    3.7585 O.co2     1 ACP        -0.8240
      8 C3B        -4.1554   -4.8698    5.3283 C.3       1 ACP        -0.6510
      9 PA         -1.0079   -6.4122    2.9416 P.3       1 ACP         1.7966
     10 O1A        -1.2140   -7.7993    2.4057 O.2       1 ACP        -0.8436
     11 O2A         0.3591   -6.2182    3.7848 O.3       1 ACP        -0.8190
     12 O3A        -2.1587   -5.9067    3.9593 O.3       1 ACP        -0.7947
     13 O5'        -0.9731   -5.2421    1.8246 O.3       1 ACP        -0.5846
     14 C5'        -0.7840   -3.8935    2.2172 C.3       1 ACP         0.2005
     15 C4'        -0.0724   -3.1466    1.1027 C.3       1 ACP         0.0711
     16 O4'        -0.8674   -3.1929   -0.0945 O.3       1 ACP        -0.4064
     17 C3'         0.1338   -1.6715    1.4027 C.3       1 ACP         0.0975
     18 O3'         1.2893   -1.4445    2.1808 O.3       1 ACP        -0.5957
     19 C2'         0.2158   -1.0724    0.0128 C.3       1 ACP         0.1195
     20 O2'         1.5141   -1.2448   -0.5513 O.3       1 ACP        -0.5845
     21 C1'        -0.7897   -1.9176   -0.7583 C.3       1 ACP         0.4064
     22 N9         -2.1040   -1.3333   -0.7704 N.pl3     1 ACP        -0.5630
     23 C8         -3.0822   -1.4850    0.1102 C.ar      1 ACP         0.2808
     24 N7         -4.1844   -0.7999   -0.1888 N.pl3     1 ACP        -0.5040
     25 C5         -3.8875   -0.1651   -1.3445 C.ar      1 ACP        -0.2807
     26 C6         -4.5941    0.6799   -2.1486 C.ar      1 ACP         0.7712
     27 N6         -5.9138    1.0274   -1.7939 N.pl3     1 ACP        -0.9461
     28 N1         -4.0421    1.1824   -3.2748 N.ar      1 ACP        -0.7457
     29 C2         -2.7637    0.7937   -3.5405 C.ar      1 ACP         0.7201
     30 N3         -1.9788   -0.0343   -2.8140 N.ar      1 ACP        -0.6849
     31 C4         -2.5915   -0.4902   -1.7174 C.ar      1 ACP         0.6369
     32 HOG2       -3.8614   -2.1135    7.6589 H         1 ACP         0.4781
     33 HOG3       -4.6743   -2.1148    4.6336 H         1 ACP         0.4781
     34 H3B1       -4.0285   -5.6274    6.1099 H         1 ACP         0.1236
     35 H3B2       -5.2240   -4.6297    5.2876 H         1 ACP         0.1236
     36 HOA2        1.2178   -6.3858    3.3411 H         1 ACP         0.4716
     37 H5'1       -1.7611   -3.4417    2.4168 H         1 ACP         0.0529
     38 H5'2       -0.1868   -3.8712    3.1345 H         1 ACP         0.0529
     39 H4'         0.8886   -3.6448    0.8780 H         1 ACP         0.1213
     40 H3'        -0.7374   -1.2358    1.9870 H         1 ACP         0.0524
     41 HO3'        1.3408   -0.4870    2.3219 H         1 ACP         0.4707
     42 H2'        -0.0384   -0.0310    0.0096 H         1 ACP         0.0774
     43 HO2'        2.1463   -0.7958    0.0370 H         1 ACP         0.4561
     44 H1'        -0.4769   -2.1002   -1.8093 H         1 ACP         0.1559
     45 H8         -3.0031   -2.1011    0.9891 H         1 ACP         0.2754
     46 HN61       -6.3271    0.6117   -0.9836 H         1 ACP         0.4584
     47 HN62       -6.4471    1.6092   -2.4083 H         1 ACP         0.4584
     48 H2         -2.3243    1.1986   -4.4449 H         1 ACP         0.0892
     49 H49        -5.0436   -0.7722    0.3425 H         1 ACP         0.5039
@<TRIPOS>BOND
     1    1    2 2
     2    1    3 1
     3    1    4 1
     4    1    8 1
     5    3   32 1
     6    4   33 1
     7    5    6 2
     8    5    7 1
     9    5    8 1
    10    5   12 1
    11    8   34 1
    12    8   35 1
    13    9   10 2
    14    9   11 1
    15    9   12 1
    16    9   13 1
    17   11   36 1
    18   13   14 1
    19   14   15 1
    20   14   37 1
    21   14   38 1
    22   15   16 1
    23   15   17 1
    24   15   39 1
    25   16   21 1
    26   17   18 1
    27   17   19 1
    28   17   40 1
    29   18   41 1
    30   19   20 1
    31   19   21 1
    32   19   42 1
    33   20   43 1
    34   21   22 1
    35   21   44 1
    36   22   23 ar
    37   22   31 ar
    38   23   24 ar
    39   23   45 1
    40   24   25 ar
    41   24   49 1
    42   25   26 ar
    43   25   31 ar
    44   26   27 1
    45   26   28 ar
    46   27   46 1
    47   27   47 1
    48   28   29 ar
    49   29   30 ar
    50   29   48 1
    51   30   31 ar
@<TRIPOS>SUBSTRUCTURE
     1 ACP         1 GROUP 0 A     ****
@<TRIPOS>MOLECULE
[[5-(6-amino-7,8-dihydropurin-8-ylium-9-yl)-3,4-dihydroxy-tetrahydrofuran-2-yl]methoxy-hydroxy-phosphoryl]oxy-(phosphonomethyl)phosphinate
   49    51     1     0     0
SMALL
USER_CHARGES

@<TRIPOS>ATOM
      1 PG          3.0062    1.1845   -7.6793 P.3       1 ACP         1.6362
      2 O1G         1.7914    0.3063   -7.6979 O.2       1 ACP        -0.8691
      3 O2G         4.2393    0.6855   -8.5961 O.3       1 ACP        -0.8016
      4 O3G         2.7673    2.7084   -8.1592 O.3       1 ACP        -0.8016
      5 PB          4.4035   -0.0496   -5.0702 P.3       1 ACP         1.4874
      6 O1B         4.9481    0.5035   -3.7736 O.co2     1 ACP        -0.8240
      7 O2B         5.2451   -0.8860   -6.0060 O.co2     1 ACP        -0.8240
      8 C3B         3.7560    1.3817   -6.0467 C.3       1 ACP        -0.6510
      9 PA          2.6334   -2.0591   -3.8369 P.3       1 ACP         1.7966
     10 O1A         3.3655   -3.3238   -4.1808 O.2       1 ACP        -0.8436
     11 O2A         1.0224   -2.1730   -3.9317 O.3       1 ACP        -0.8190
     12 O3A         2.9834   -0.7995   -4.7890 O.3       1 ACP        -0.7947
     13 O5'         2.9195   -1.4814   -2.3528 O.3       1 ACP        -0.5846
     14 C5'         2.2816   -0.2918   -1.9206 C.3       1 ACP         0.2005
     15 C4'         2.7248    0.0226   -0.4980 C.3       1 ACP         0.0711
     16 O4'         2.4697    1.4219   -0.2462 O.3       1 ACP        -0.4064
     17 C3'         1.9404   -0.7419    0.5596 C.3       1 ACP         0.0975
     18 O3'         2.7418   -0.8086    1.7389 O.3       1 ACP        -0.5957
     19 C2'         0.7477    0.1630    0.7858 C.3       1 ACP         0.1195
     20 O2'         0.1373   -0.0577    2.0407 O.3       1 ACP        -0.5845
     21 C1'         1.3733    1.5427    0.6747 C.3       1 ACP         0.4064
     22 N9          0.4520    2.5240    0.1767 N.pl3     1 ACP        -0.5630
     23 C8          0.1928    2.8484   -1.0815 C.ar      1 ACP         0.2808
     24 N7         -0.7248    3.8048   -1.2110 N.pl3     1 ACP        -0.5040
     25 C5         -1.0765    4.1129    0.0571 C.ar      1 ACP        -0.2807
     26 C6         -1.9614    5.0063    0.5851 C.ar      1 ACP         0.7712
     27 N6         -2.7145    5.8254   -0.2810 N.pl3     1 ACP        -0.9461
     28 N1         -2.1199    5.1113    1.9228 N.ar      1 ACP        -0.7457
     29 C2         -1.3522    4.2822    2.6839 C.ar      1 ACP         0.7201
     30 N3         -0.4501    3.3660    2.2638 N.ar      1 ACP        -0.6849
     31 C4         -0.3487    3.3198    0.9322 C.ar      1 ACP         0.6369
     32 HOG2        4.6437   -0.1894   -8.4137 H         1 ACP         0.4781
     33 HOG3        2.4348    2.8743   -9.0671 H         1 ACP         0.4781
     34 H3B1        4.5981    2.0736   -6.1616 H         1 ACP         0.1236
     35 H3B2        3.0209    1.8784   -5.4033 H         1 ACP         0.1236
     36 HOA2        0.5592   -2.8268   -3.3659 H         1 ACP         0.4716
     37 H5'1        2.5577    0.5244   -2.5962 H         1 ACP         0.0529
     38 H5'2        1.1970   -0.4361   -1.9603 H         1 ACP         0.0529
     39 H4'         3.8049   -0.1388   -0.4009 H         1 ACP         0.1213
     40 H3'         1.6783   -1.7629    0.2715 H         1 ACP         0.0524
     41 HO3'        2.2232   -1.2979    2.3953 H         1 ACP         0.4707
     42 H2'        -0.0011    0.0027    0.0003 H         1 ACP         0.0774
     43 HO2'       -0.1563   -0.9855    2.0596 H         1 ACP         0.4561
     44 H1'         1.7826    1.9024    1.6451 H         1 ACP         0.1559
     45 H8          0.6728    2.3873   -1.9272 H         1 ACP         0.2754
     46 HN61       -2.5537    5.7714   -1.2667 H         1 ACP         0.4584
     47 HN62       -3.3283    6.5126    0.1081 H         1 ACP         0.4584
     48 H2         -1.4818    4.3694    3.7565 H         1 ACP         0.0892
     49 H49        -1.0701    4.2005   -2.0743 H         1 ACP         0.5039
@<TRIPOS>BOND
     1    1    2 2
     2    1    3 1
     3    1    4 1
     4    1    8 1
     5    3   32 1
     6    4   33 1
     7    5    6 2
     8    5    7 1
     9    5    8 1
    10    5   12 1
    11    8   34 1
    12    8   35 1
    13    9   10 2
    14    9   11 1
    15    9   12 1
    16    9   13 1
    17   11   36 1
    18   13   14 1
    19   14   15 1
    20   14   37 1
    21   14   38 1
    22   15   16 1
    23   15   17 1
    24   15   39 1
    25   16   21 1
    26   17   18 1
    27   17   19 1
    28   17   40 1
    29   18   41 1
    30   19   20 1
    31   19   21 1
    32   19   42 1
    33   20   43 1
    34   21   22 1
    35   21   44 1
    36   22   23 ar
    37   22   31 ar
    38   23   24 ar
    39   23   45 1
    40   24   25 ar
    41   24   49 1
    42   25   26 ar
    43   25   31 ar
    44   26   27 1
    45   26   28 ar
    46   27   46 1
    47   27   47 1
    48   28   29 ar
    49   29   30 ar
    50   29   48 1
    51   30   31 ar
@<TRIPOS>SUBSTRUCTURE
     1 ACP         1 GROUP 0 A     ****
@<TRIPOS>MOLECULE
[[5-(6-amino-7,8-dihydropurin-8-ylium-9-yl)-3,4-dihydroxy-tetrahydrofuran-2-yl]methoxy-hydroxy-phosphoryl]oxy-(phosphonomethyl)phosphinate
   49    51     1     0     0
SMALL
USER_CHARGES

@<TRIPOS>ATOM
      1 PG          2.5477   -4.4348   -3.5667 P.3       1 ACP         1.6362
      2 O1G         3.4356   -4.0796   -2.4122 O.2       1 ACP        -0.8691
      3 O2G         2.4996   -6.0034   -3.9502 O.3       1 ACP        -0.8016
      4 O3G         0.9915   -4.0377   -3.3922 O.3       1 ACP        -0.8016
      5 PB          3.0413   -1.8022   -5.3298 P.3       1 ACP         1.4874
      6 O1B         1.6477   -1.2904   -5.0475 O.co2     1 ACP        -0.8240
      7 O2B         3.7589   -1.5116   -6.6275 O.co2     1 ACP        -0.8240
      8 C3B         3.0012   -3.6402   -5.1253 C.3       1 ACP        -0.6510
      9 PA          4.4219   -0.0239   -3.4261 P.3       1 ACP         1.7966
     10 O1A         5.1111    0.9158   -4.3724 O.2       1 ACP        -0.8436
     11 O2A         5.2994   -0.4279   -2.1284 O.3       1 ACP        -0.8190
     12 O3A         4.0165   -1.4504   -4.0715 O.3       1 ACP        -0.7947
     13 O5'         3.0190    0.5130   -2.8246 O.3       1 ACP        -0.5846
     14 C5'         2.2816   -0.2918   -1.9206 C.3       1 ACP         0.2005
     15 C4'         2.7248    0.0226   -0.4980 C.3       1 ACP         0.0711
     16 O4'         2.4697    1.4219   -0.2462 O.3       1 ACP        -0.4064
     17 C3'         1.9404   -0.7419    0.5596 C.3       1 ACP         0.0975
     18 O3'         2.7418   -0.8086    1.7389 O.3       1 ACP        -0.5957
     19 C2'         0.7477    0.1630    0.7858 C.3       1 ACP         0.1195
     20 O2'         0.1373   -0.0577    2.0407 O.3       1 ACP        -0.5845
     21 C1'         1.3733    1.5427    0.6747 C.3       1 ACP         0.4064
     22 N9          0.4520    2.5240    0.1767 N.pl3     1 ACP        -0.5630
     23 C8          0.1928    2.8484   -1.0815 C.ar      1 ACP         0.2808
     24 N7         -0.7248    3.8048   -1.2110 N.pl3     1 ACP        -0.5040
     25 C5         -1.0765    4.1129    0.0571 C.ar      1 ACP        -0.2807
     26 C6         -1.9614    5.0063    0.5851 C.ar      1 ACP         0.7712
     27 N6         -2.7145    5.8254   -0.2810 N.pl3     1 ACP        -0.9461
     28 N1         -2.1199    5.1113    1.9228 N.ar      1 ACP        -0.7457
     29 C2         -1.3522    4.2822    2.6839 C.ar      1 ACP         0.7201
     30 N3         -0.4501    3.3660    2.2638 N.ar      1 ACP        -0.6849
     31 C4         -0.3487    3.3198    0.9322 C.ar      1 ACP         0.6369
     32 HOG2        1.9346   -6.2929   -4.6980 H         1 ACP         0.4781
     33 HOG3        0.4839   -4.4212   -2.6455 H         1 ACP         0.4781
     34 H3B1        4.0050   -3.9942   -5.3860 H         1 ACP         0.1236
     35 H3B2        2.3202   -4.0153   -5.8978 H         1 ACP         0.1236
     36 HOA2        6.1601   -0.8797   -2.2600 H         1 ACP         0.4716
     37 H5'1        1.2149   -0.0786   -2.0446 H         1 ACP         0.0529
     38 H5'2        2.4640   -1.3459   -2.1539 H         1 ACP         0.0529
     39 H4'         3.8049   -0.1388   -0.4009 H         1 ACP         0.1213
     40 H3'         1.6783   -1.7629    0.2715 H         1 ACP         0.0524
     41 HO3'        2.2232   -1.2979    2.3953 H         1 ACP         0.4707
     42 H2'        -0.0011    0.0027    0.0003 H         1 ACP         0.0774
     43 HO2'       -0.6141    0.5574    2.1082 H         1 ACP         0.4561
     44 H1'         1.7826    1.9024    1.6451 H         1 ACP         0.1559
     45 H8          0.6728    2.3873   -1.9272 H         1 ACP         0.2754
     46 HN61       -2.5537    5.7714   -1.2667 H         1 ACP         0.4584
     47 HN62       -3.3283    6.5126    0.1081 H         1 ACP         0.4584
     48 H2         -1.4818    4.3694    3.7565 H         1 ACP         0.0892
     49 H49        -1.0701    4.2005   -2.0743 H         1 ACP         0.5039
@<TRIPOS>BOND
     1    1    2 2
     2    1    3 1
     3    1    4 1
     4    1    8 1
     5    3   32 1
     6    4   33 1
     7    5    6 2
     8    5    7 1
     9    5    8 1
    10    5   12 1
    11    8   34 1
    12    8   35 1
    13    9   10 2
    14    9   11 1
    15    9   12 1
    16    9   13 1
    17   11   36 1
    18   13   14 1
    19   14   15 1
    20   14   37 1
    21   14   38 1
    22   15   16 1
    23   15   17 1
    24   15   39 1
    25   16   21 1
    26   17   18 1
    27   17   19 1
    28   17   40 1
    29   18   41 1
    30   19   20 1
    31   19   21 1
    32   19   42 1
    33   20   43 1
    34   21   22 1
    35   21   44 1
    36   22   23 ar
    37   22   31 ar
    38   23   24 ar
    39   23   45 1
    40   24   25 ar
    41   24   49 1
    42   25   26 ar
    43   25   31 ar
    44   26   27 1
    45   26   28 ar
    46   27   46 1
    47   27   47 1
    48   28   29 ar
    49   29   30 ar
    50   29   48 1
    51   30   31 ar
@<TRIPOS>SUBSTRUCTURE
     1 ACP         1 GROUP 0 A     ****
@<TRIPOS>MOLECULE
[[5-(6-amino-7,8-dihydropurin-8-ylium-9-yl)-3,4-dihydroxy-tetrahydrofuran-2-yl]methoxy-hydroxy-phosphoryl]oxy-(phosphonomethyl)phosphinate
   49    51     1     0     0
SMALL
USER_CHARGES

@<TRIPOS>ATOM
      1 PG         -1.2914    1.4515   -6.3995 P.3       1 ACP         1.6362
      2 O1G        -0.9826    2.3370   -7.5691 O.2       1 ACP        -0.8691
      3 O2G        -2.8600    1.2773   -6.0541 O.3       1 ACP        -0.8016
      4 O3G        -0.7572   -0.0683   -6.5205 O.3       1 ACP        -0.8016
      5 PB          1.2398    2.2168   -4.5856 P.3       1 ACP         1.4874
      6 O1B         1.4460    2.6955   -3.1672 O.co2     1 ACP        -0.8240
      7 O2B         1.7722    2.9771   -5.7780 O.co2     1 ACP        -0.8240
      8 C3B        -0.5816    2.0121   -4.8348 C.3       1 ACP        -0.6510
      9 PA          3.0853   -0.0761   -4.4159 P.3       1 ACP         1.7966
     10 O1A         4.2171    0.4133   -5.2721 O.2       1 ACP        -0.8436
     11 O2A         2.7514   -1.6500   -4.5859 O.3       1 ACP        -0.8190
     12 O3A         1.6668    0.6474   -4.6987 O.3       1 ACP        -0.7947
     13 O5'         3.2874    0.1331   -2.8242 O.3       1 ACP        -0.5846
     14 C5'         2.2816   -0.2918   -1.9206 C.3       1 ACP         0.2005
     15 C4'         2.7248    0.0226   -0.4980 C.3       1 ACP         0.0711
     16 O4'         2.4697    1.4219   -0.2462 O.3       1 ACP        -0.4064
     17 C3'         1.9404   -0.7419    0.5596 C.3       1 ACP         0.0975
     18 O3'         2.7418   -0.8086    1.7389 O.3       1 ACP        -0.5957
     19 C2'         0.7477    0.1630    0.7858 C.3       1 ACP         0.1195
     20 O2'         0.1373   -0.0577    2.0407 O.3       1 ACP        -0.5845
     21 C1'         1.3733    1.5427    0.6747 C.3       1 ACP         0.4064
     22 N9          0.4520    2.5240    0.1767 N.pl3     1 ACP        -0.5630
     23 C8         -0.5899    2.3466   -0.6224 C.ar      1 ACP         0.2808
     24 N7         -1.2514    3.4689   -0.8989 N.pl3     1 ACP        -0.5040
     25 C5         -0.5826    4.4323   -0.2272 C.ar      1 ACP        -0.2807
     26 C6         -0.7636    5.7789   -0.1086 C.ar      1 ACP         0.7712
     27 N6         -1.8382    6.3927   -0.7843 N.pl3     1 ACP        -0.9461
     28 N1          0.0741    6.5233    0.6461 N.ar      1 ACP        -0.7457
     29 C2          1.0845    5.8486    1.2626 C.ar      1 ACP         0.7201
     30 N3          1.3516    4.5236    1.2116 N.ar      1 ACP        -0.6849
     31 C4          0.4827    3.8546    0.4481 C.ar      1 ACP         0.6369
     32 HOG2       -3.4570    0.8974   -6.7334 H         1 ACP         0.4781
     33 HOG3       -0.9305   -0.6931   -5.7844 H         1 ACP         0.4781
     34 H3B1       -1.0278    2.9878   -4.6112 H         1 ACP         0.1236
     35 H3B2       -0.9177    1.3212   -4.0532 H         1 ACP         0.1236
     36 HOA2        3.4497   -2.3077   -4.3811 H         1 ACP         0.4716
     37 H5'1        1.3494    0.2322   -2.1552 H         1 ACP         0.0529
     38 H5'2        2.1260   -1.3686   -2.0435 H         1 ACP         0.0529
     39 H4'         3.8049   -0.1388   -0.4009 H         1 ACP         0.1213
     40 H3'         1.6783   -1.7629    0.2715 H         1 ACP         0.0524
     41 HO3'        2.2232   -1.2979    2.3953 H         1 ACP         0.4707
     42 H2'        -0.0011    0.0027    0.0003 H         1 ACP         0.0774
     43 HO2'       -0.6141    0.5574    2.1082 H         1 ACP         0.4561
     44 H1'         1.7826    1.9024    1.6451 H         1 ACP         0.1559
     45 H8         -0.8833    1.3888   -1.0158 H         1 ACP         0.2754
     46 HN61       -2.4225    5.8385   -1.3773 H         1 ACP         0.4584
     47 HN62       -1.9421    7.3862   -0.7348 H         1 ACP         0.4584
     48 H2          1.7546    6.4491    1.8670 H         1 ACP         0.0892
     49 H49        -2.0705    3.5612   -1.4834 H         1 ACP         0.5039
@<TRIPOS>BOND
     1    1    2 2
     2    1    3 1
     3    1    4 1
     4    1    8 1
     5    3   32 1
     6    4   33 1
     7    5    6 2
     8    5    7 1
     9    5    8 1
    10    5   12 1
    11    8   34 1
    12    8   35 1
    13    9   10 2
    14    9   11 1
    15    9   12 1
    16    9   13 1
    17   11   36 1
    18   13   14 1
    19   14   15 1
    20   14   37 1
    21   14   38 1
    22   15   16 1
    23   15   17 1
    24   15   39 1
    25   16   21 1
    26   17   18 1
    27   17   19 1
    28   17   40 1
    29   18   41 1
    30   19   20 1
    31   19   21 1
    32   19   42 1
    33   20   43 1
    34   21   22 1
    35   21   44 1
    36   22   23 ar
    37   22   31 ar
    38   23   24 ar
    39   23   45 1
    40   24   25 ar
    41   24   49 1
    42   25   26 ar
    43   25   31 ar
    44   26   27 1
    45   26   28 ar
    46   27   46 1
    47   27   47 1
    48   28   29 ar
    49   29   30 ar
    50   29   48 1
    51   30   31 ar
@<TRIPOS>SUBSTRUCTURE
     1 ACP         1 GROUP 0 A     ****
@<TRIPOS>MOLECULE
[[5-(6-amino-7,8-dihydropurin-8-ylium-9-yl)-3,4-dihydroxy-tetrahydrofuran-2-yl]methoxy-hydroxy-phosphoryl]oxy-(phosphonomethyl)phosphinate
   49    51     1     0     0
SMALL
USER_CHARGES

@<TRIPOS>ATOM
      1 PG         -5.2950   -2.8997    3.8999 P.3       1 ACP         1.6362
      2 O1G        -4.0780   -2.3482    3.2200 O.2       1 ACP        -0.8691
      3 O2G        -5.3243   -2.7435    5.5077 O.3       1 ACP        -0.8016
      4 O3G        -6.7017   -2.2596    3.4296 O.3       1 ACP        -0.8016
      5 PB         -4.3064   -5.9373    4.1800 P.3       1 ACP         1.4874
      6 O1B        -4.8628   -7.2922    3.8082 O.co2     1 ACP        -0.8240
      7 O2B        -3.8938   -5.5958    5.5931 O.co2     1 ACP        -0.8240
      8 C3B        -5.5472   -4.6718    3.6504 C.3       1 ACP        -0.6510
      9 PA         -1.7112   -6.2792    2.8234 P.3       1 ACP         1.7966
     10 O1A        -1.8536   -7.6783    2.2982 O.2       1 ACP        -0.8436
     11 O2A        -0.8909   -6.1678    4.2134 O.3       1 ACP        -0.8190
     12 O3A        -3.1111   -5.5365    3.1461 O.3       1 ACP        -0.7947
     13 O5'        -0.9731   -5.2421    1.8246 O.3       1 ACP        -0.5846
     14 C5'        -0.7840   -3.8935    2.2172 C.3       1 ACP         0.2005
     15 C4'        -0.0724   -3.1466    1.1027 C.3       1 ACP         0.0711
     16 O4'        -0.8674   -3.1929   -0.0945 O.3       1 ACP        -0.4064
     17 C3'         0.1338   -1.6715    1.4027 C.3       1 ACP         0.0975
     18 O3'         1.2893   -1.4445    2.1808 O.3       1 ACP        -0.5957
     19 C2'         0.2158   -1.0724    0.0128 C.3       1 ACP         0.1195
     20 O2'         1.5141   -1.2448   -0.5513 O.3       1 ACP        -0.5845
     21 C1'        -0.7897   -1.9176   -0.7583 C.3       1 ACP         0.4064
     22 N9         -2.1040   -1.3333   -0.7704 N.pl3     1 ACP        -0.5630
     23 C8         -3.0822   -1.4850    0.1102 C.ar      1 ACP         0.2808
     24 N7         -4.1844   -0.7999   -0.1888 N.pl3     1 ACP        -0.5040
     25 C5         -3.8875   -0.1651   -1.3445 C.ar      1 ACP        -0.2807
     26 C6         -4.5941    0.6799   -2.1486 C.ar      1 ACP         0.7712
     27 N6         -5.9138    1.0274   -1.7939 N.pl3     1 ACP        -0.9461
     28 N1         -4.0421    1.1824   -3.2748 N.ar      1 ACP        -0.7457
     29 C2         -2.7637    0.7937   -3.5405 C.ar      1 ACP         0.7201
     30 N3         -1.9788   -0.0343   -2.8140 N.ar      1 ACP        -0.6849
     31 C4         -2.5915   -0.4902   -1.7174 C.ar      1 ACP         0.6369
     32 HOG2       -6.0973   -3.0867    6.0046 H         1 ACP         0.4781
     33 HOG3       -6.8478   -1.2964    3.5445 H         1 ACP         0.4781
     34 H3B1       -6.4827   -4.9373    4.1558 H         1 ACP         0.1236
     35 H3B2       -5.7065   -4.8352    2.5785 H         1 ACP         0.1236
     36 HOA2        0.0375   -6.4828    4.2426 H         1 ACP         0.4716
     37 H5'1       -1.7611   -3.4417    2.4168 H         1 ACP         0.0529
     38 H5'2       -0.1868   -3.8712    3.1345 H         1 ACP         0.0529
     39 H4'         0.8886   -3.6448    0.8780 H         1 ACP         0.1213
     40 H3'        -0.7374   -1.2358    1.9870 H         1 ACP         0.0524
     41 HO3'        1.3408   -0.4870    2.3219 H         1 ACP         0.4707
     42 H2'        -0.0384   -0.0310    0.0096 H         1 ACP         0.0774
     43 HO2'        2.1463   -0.7958    0.0370 H         1 ACP         0.4561
     44 H1'        -0.4769   -2.1002   -1.8093 H         1 ACP         0.1559
     45 H8         -3.0031   -2.1011    0.9891 H         1 ACP         0.2754
     46 HN61       -6.3271    0.6117   -0.9836 H         1 ACP         0.4584
     47 HN62       -6.4471    1.6092   -2.4083 H         1 ACP         0.4584
     48 H2         -2.3243    1.1986   -4.4449 H         1 ACP         0.0892
     49 H49        -5.0436   -0.7722    0.3425 H         1 ACP         0.5039
@<TRIPOS>BOND
     1    1    2 2
     2    1    3 1
     3    1    4 1
     4    1    8 1
     5    3   32 1
     6    4   33 1
     7    5    6 2
     8    5    7 1
     9    5    8 1
    10    5   12 1
    11    8   34 1
    12    8   35 1
    13    9   10 2
    14    9   11 1
    15    9   12 1
    16    9   13 1
    17   11   36 1
    18   13   14 1
    19   14   15 1
    20   14   37 1
    21   14   38 1
    22   15   16 1
    23   15   17 1
    24   15   39 1
    25   16   21 1
    26   17   18 1
    27   17   19 1
    28   17   40 1
    29   18   41 1
    30   19   20 1
    31   19   21 1
    32   19   42 1
    33   20   43 1
    34   21   22 1
    35   21   44 1
    36   22   23 ar
    37   22   31 ar
    38   23   24 ar
    39   23   45 1
    40   24   25 ar
    41   24   49 1
    42   25   26 ar
    43   25   31 ar
    44   26   27 1
    45   26   28 ar
    46   27   46 1
    47   27   47 1
    48   28   29 ar
    49   29   30 ar
    50   29   48 1
    51   30   31 ar
@<TRIPOS>SUBSTRUCTURE
     1 ACP         1 GROUP 0 A     ****
@<TRIPOS>MOLECULE
[[5-(6-amino-7,8-dihydropurin-8-ylium-9-yl)-3,4-dihydroxy-tetrahydrofuran-2-yl]methoxy-hydroxy-phosphoryl]oxy-(phosphonomethyl)phosphinate
   49    51     1     0     0
SMALL
USER_CHARGES

@<TRIPOS>ATOM
      1 PG         -0.9862   -2.0993   -4.3699 P.3       1 ACP         1.6362
      2 O1G         0.2028   -2.9529   -4.0461 O.2       1 ACP        -0.8691
      3 O2G        -2.2400   -2.8748   -5.0307 O.3       1 ACP        -0.8016
      4 O3G        -1.6401   -1.3172   -3.1166 O.3       1 ACP        -0.8016
      5 PB          0.5959    0.5556   -5.2253 P.3       1 ACP         1.4874
      6 O1B         0.1608    1.2796   -3.9723 O.co2     1 ACP        -0.8240
      7 O2B         0.8323    1.2771   -6.5318 O.co2     1 ACP        -0.8240
      8 C3B        -0.6497   -0.7728   -5.5504 C.3       1 ACP        -0.6510
      9 PA          3.3384   -0.0297   -4.3151 P.3       1 ACP         1.7966
     10 O1A         4.1258    0.9106   -5.1809 O.2       1 ACP        -0.8436
     11 O2A         4.0360   -1.4716   -4.0883 O.3       1 ACP        -0.8190
     12 O3A         1.8718   -0.4013   -4.8868 O.3       1 ACP        -0.7947
     13 O5'         3.0190    0.5130   -2.8246 O.3       1 ACP        -0.5846
     14 C5'         2.2816   -0.2918   -1.9206 C.3       1 ACP         0.2005
     15 C4'         2.7248    0.0226   -0.4980 C.3       1 ACP         0.0711
     16 O4'         2.4697    1.4219   -0.2462 O.3       1 ACP        -0.4064
     17 C3'         1.9404   -0.7419    0.5596 C.3       1 ACP         0.0975
     18 O3'         2.7418   -0.8086    1.7389 O.3       1 ACP        -0.5957
     19 C2'         0.7477    0.1630    0.7858 C.3       1 ACP         0.1195
     20 O2'         0.1373   -0.0577    2.0407 O.3       1 ACP        -0.5845
     21 C1'         1.3733    1.5427    0.6747 C.3       1 ACP         0.4064
     22 N9          0.4520    2.5240    0.1767 N.pl3     1 ACP        -0.5630
     23 C8         -0.8602    2.5861    0.3496 C.ar      1 ACP         0.2808
     24 N7         -1.4308    3.6326   -0.2443 N.pl3     1 ACP        -0.5040
     25 C5         -0.4080    4.2856   -0.8394 C.ar      1 ACP        -0.2807
     26 C6         -0.3432    5.4196   -1.5943 C.ar      1 ACP         0.7712
     27 N6         -1.5276    6.1333   -1.8702 N.pl3     1 ACP        -0.9461
     28 N1          0.8395    5.8603   -2.0764 N.ar      1 ACP        -0.7457
     29 C2          1.9319    5.1095   -1.7617 C.ar      1 ACP         0.7201
     30 N3          1.9773    3.9761   -1.0249 N.ar      1 ACP        -0.6849
     31 C4          0.7724    3.6031   -0.5836 C.ar      1 ACP         0.6369
     32 HOG2       -3.0453   -2.3652   -5.2631 H         1 ACP         0.4781
     33 HOG3       -1.9877   -1.8371   -2.3608 H         1 ACP         0.4781
     34 H3B1       -0.3448   -1.2484   -6.4894 H         1 ACP         0.1236
     35 H3B2       -1.5967   -0.2573   -5.7469 H         1 ACP         0.1236
     36 HOA2        4.9197   -1.5094   -3.6642 H         1 ACP         0.4716
     37 H5'1        1.2149   -0.0786   -2.0446 H         1 ACP         0.0529
     38 H5'2        2.4640   -1.3459   -2.1539 H         1 ACP         0.0529
     39 H4'         3.8049   -0.1388   -0.4009 H         1 ACP         0.1213
     40 H3'         1.6783   -1.7629    0.2715 H         1 ACP         0.0524
     41 HO3'        2.2232   -1.2979    2.3953 H         1 ACP         0.4707
     42 H2'        -0.0011    0.0027    0.0003 H         1 ACP         0.0774
     43 HO2'       -0.1563   -0.9855    2.0596 H         1 ACP         0.4561
     44 H1'         1.7826    1.9024    1.6451 H         1 ACP         0.1559
     45 H8         -1.4217    1.8638    0.9164 H         1 ACP         0.2754
     46 HN61       -2.4023    5.7711   -1.5477 H         1 ACP         0.4584
     47 HN62       -1.4856    6.9379   -2.4627 H         1 ACP         0.4584
     48 H2          2.8789    5.4660   -2.1503 H         1 ACP         0.0892
     49 H49        -2.4129    3.8706   -0.2402 H         1 ACP         0.5039
@<TRIPOS>BOND
     1    1    2 2
     2    1    3 1
     3    1    4 1
     4    1    8 1
     5    3   32 1
     6    4   33 1
     7    5    6 2
     8    5    7 1
     9    5    8 1
    10    5   12 1
    11    8   34 1
    12    8   35 1
    13    9   10 2
    14    9   11 1
    15    9   12 1
    16    9   13 1
    17   11   36 1
    18   13   14 1
    19   14   15 1
    20   14   37 1
    21   14   38 1
    22   15   16 1
    23   15   17 1
    24   15   39 1
    25   16   21 1
    26   17   18 1
    27   17   19 1
    28   17   40 1
    29   18   41 1
    30   19   20 1
    31   19   21 1
    32   19   42 1
    33   20   43 1
    34   21   22 1
    35   21   44 1
    36   22   23 ar
    37   22   31 ar
    38   23   24 ar
    39   23   45 1
    40   24   25 ar
    41   24   49 1
    42   25   26 ar
    43   25   31 ar
    44   26   27 1
    45   26   28 ar
    46   27   46 1
    47   27   47 1
    48   28   29 ar
    49   29   30 ar
    50   29   48 1
    51   30   31 ar
@<TRIPOS>SUBSTRUCTURE
     1 ACP         1 GROUP 0 A     ****
@<TRIPOS>MOLECULE
[[5-(6-amino-7,8-dihydropurin-8-ylium-9-yl)-3,4-dihydroxy-tetrahydrofuran-2-yl]methoxy-hydroxy-phosphoryl]oxy-(phosphonomethyl)phosphinate
   49    51     1     0     0
SMALL
USER_CHARGES

@<TRIPOS>ATOM
      1 PG          0.5575   -8.9549    3.1573 P.3       1 ACP         1.6362
      2 O1G         1.1577   -7.7805    2.4446 O.2       1 ACP        -0.8691
      3 O2G         0.3605  -10.2853    2.2622 O.3       1 ACP        -0.8016
      4 O3G         1.3816   -9.4802    4.4437 O.3       1 ACP        -0.8016
      5 PB         -1.4390   -7.3353    5.0740 P.3       1 ACP         1.4874
      6 O1B        -0.6011   -7.6450    6.2929 O.co2     1 ACP        -0.8240
      7 O2B        -2.9390   -7.1689    5.1486 O.co2     1 ACP        -0.8240
      8 C3B        -1.0953   -8.6547    3.8240 C.3       1 ACP        -0.6510
      9 PA         -0.5051   -4.5580    4.7469 P.3       1 ACP         1.7966
     10 O1A         0.4194   -4.4346    5.9232 O.2       1 ACP        -0.8436
     11 O2A        -1.9864   -3.9569    4.9955 O.3       1 ACP        -0.8190
     12 O3A        -0.7854   -6.0774    4.2686 O.3       1 ACP        -0.7947
     13 O5'         0.0089   -3.8407    3.3906 O.3       1 ACP        -0.5846
     14 C5'        -0.7840   -3.8935    2.2172 C.3       1 ACP         0.2005
     15 C4'        -0.0724   -3.1466    1.1027 C.3       1 ACP         0.0711
     16 O4'        -0.8674   -3.1929   -0.0945 O.3       1 ACP        -0.4064
     17 C3'         0.1338   -1.6715    1.4027 C.3       1 ACP         0.0975
     18 O3'         1.2893   -1.4445    2.1808 O.3       1 ACP        -0.5957
     19 C2'         0.2158   -1.0724    0.0128 C.3       1 ACP         0.1195
     20 O2'         1.5141   -1.2448   -0.5513 O.3       1 ACP        -0.5845
     21 C1'        -0.7897   -1.9176   -0.7583 C.3       1 ACP         0.4064
     22 N9         -2.1040   -1.3333   -0.7704 N.pl3     1 ACP        -0.5630
     23 C8         -3.0822   -1.4850    0.1102 C.ar      1 ACP         0.2808
     24 N7         -4.1844   -0.7999   -0.1888 N.pl3     1 ACP        -0.5040
     25 C5         -3.8875   -0.1651   -1.3445 C.ar      1 ACP        -0.2807
     26 C6         -4.5941    0.6799   -2.1486 C.ar      1 ACP         0.7712
     27 N6         -5.9138    1.0274   -1.7939 N.pl3     1 ACP        -0.9461
     28 N1         -4.0421    1.1824   -3.2748 N.ar      1 ACP        -0.7457
     29 C2         -2.7637    0.7937   -3.5405 C.ar      1 ACP         0.7201
     30 N3         -1.9788   -0.0343   -2.8140 N.ar      1 ACP        -0.6849
     31 C4         -2.5915   -0.4902   -1.7174 C.ar      1 ACP         0.6369
     32 HOG2        1.1475  -10.7033    1.8522 H         1 ACP         0.4781
     33 HOG3        1.0359  -10.2464    4.9493 H         1 ACP         0.4781
     34 H3B1       -1.7510   -8.4410    2.9724 H         1 ACP         0.1236
     35 H3B2       -1.4470   -9.5921    4.2698 H         1 ACP         0.1236
     36 HOA2       -2.0810   -3.0066    5.2194 H         1 ACP         0.4716
     37 H5'1       -0.9362   -4.9413    1.9386 H         1 ACP         0.0529
     38 H5'2       -1.7563   -3.4348    2.4248 H         1 ACP         0.0529
     39 H4'         0.8886   -3.6448    0.8780 H         1 ACP         0.1213
     40 H3'        -0.7374   -1.2358    1.9870 H         1 ACP         0.0524
     41 HO3'        1.1626   -1.9325    3.0084 H         1 ACP         0.4707
     42 H2'        -0.0384   -0.0310    0.0096 H         1 ACP         0.0774
     43 HO2'        2.1463   -0.7958    0.0370 H         1 ACP         0.4561
     44 H1'        -0.4769   -2.1002   -1.8093 H         1 ACP         0.1559
     45 H8         -3.0031   -2.1011    0.9891 H         1 ACP         0.2754
     46 HN61       -6.3271    0.6117   -0.9836 H         1 ACP         0.4584
     47 HN62       -6.4471    1.6092   -2.4083 H         1 ACP         0.4584
     48 H2         -2.3243    1.1986   -4.4449 H         1 ACP         0.0892
     49 H49        -5.0436   -0.7722    0.3425 H         1 ACP         0.5039
@<TRIPOS>BOND
     1    1    2 2
     2    1    3 1
     3    1    4 1
     4    1    8 1
     5    3   32 1
     6    4   33 1
     7    5    6 2
     8    5    7 1
     9    5    8 1
    10    5   12 1
    11    8   34 1
    12    8   35 1
    13    9   10 2
    14    9   11 1
    15    9   12 1
    16    9   13 1
    17   11   36 1
    18   13   14 1
    19   14   15 1
    20   14   37 1
    21   14   38 1
    22   15   16 1
    23   15   17 1
    24   15   39 1
    25   16   21 1
    26   17   18 1
    27   17   19 1
    28   17   40 1
    29   18   41 1
    30   19   20 1
    31   19   21 1
    32   19   42 1
    33   20   43 1
    34   21   22 1
    35   21   44 1
    36   22   23 ar
    37   22   31 ar
    38   23   24 ar
    39   23   45 1
    40   24   25 ar
    41   24   49 1
    42   25   26 ar
    43   25   31 ar
    44   26   27 1
    45   26   28 ar
    46   27   46 1
    47   27   47 1
    48   28   29 ar
    49   29   30 ar
    50   29   48 1
    51   30   31 ar
@<TRIPOS>SUBSTRUCTURE
     1 ACP         1 GROUP 0 A     ****
@<TRIPOS>MOLECULE
[[5-(6-amino-7,8-dihydropurin-8-ylium-9-yl)-3,4-dihydroxy-tetrahydrofuran-2-yl]methoxy-hydroxy-phosphoryl]oxy-(phosphonomethyl)phosphinate
   49    51     1     0     0
SMALL
USER_CHARGES

@<TRIPOS>ATOM
      1 PG         -4.0132   -3.6666    5.9171 P.3       1 ACP         1.6362
      2 O1G        -3.2304   -3.2876    7.1381 O.2       1 ACP        -0.8691
      3 O2G        -5.5538   -3.1805    5.9000 O.3       1 ACP        -0.8016
      4 O3G        -3.4245   -3.1151    4.5174 O.3       1 ACP        -0.8016
      5 PB         -2.6509   -6.5208    5.3872 P.3       1 ACP         1.4874
      6 O1B        -3.1482   -7.9334    5.1851 O.co2     1 ACP        -0.8240
      7 O2B        -1.6548   -6.1638    6.4660 O.co2     1 ACP        -0.8240
      8 C3B        -4.1368   -5.4477    5.6364 C.3       1 ACP        -0.6510
      9 PA         -1.0079   -6.4122    2.9416 P.3       1 ACP         1.7966
     10 O1A        -1.2140   -7.7993    2.4057 O.2       1 ACP        -0.8436
     11 O2A         0.3591   -6.2182    3.7848 O.3       1 ACP        -0.8190
     12 O3A        -2.1587   -5.9067    3.9593 O.3       1 ACP        -0.7947
     13 O5'        -0.9731   -5.2421    1.8246 O.3       1 ACP        -0.5846
     14 C5'        -0.7840   -3.8935    2.2172 C.3       1 ACP         0.2005
     15 C4'        -0.0724   -3.1466    1.1027 C.3       1 ACP         0.0711
     16 O4'        -0.8674   -3.1929   -0.0945 O.3       1 ACP        -0.4064
     17 C3'         0.1338   -1.6715    1.4027 C.3       1 ACP         0.0975
     18 O3'         1.2893   -1.4445    2.1808 O.3       1 ACP        -0.5957
     19 C2'         0.2158   -1.0724    0.0128 C.3       1 ACP         0.1195
     20 O2'         1.5141   -1.2448   -0.5513 O.3       1 ACP        -0.5845
     21 C1'        -0.7897   -1.9176   -0.7583 C.3       1 ACP         0.4064
     22 N9         -2.1040   -1.3333   -0.7704 N.pl3     1 ACP        -0.5630
     23 C8         -3.0822   -1.4850    0.1102 C.ar      1 ACP         0.2808
     24 N7         -4.1844   -0.7999   -0.1888 N.pl3     1 ACP        -0.5040
     25 C5         -3.8875   -0.1651   -1.3445 C.ar      1 ACP        -0.2807
     26 C6         -4.5941    0.6799   -2.1486 C.ar      1 ACP         0.7712
     27 N6         -5.9138    1.0274   -1.7939 N.pl3     1 ACP        -0.9461
     28 N1         -4.0421    1.1824   -3.2748 N.ar      1 ACP        -0.7457
     29 C2         -2.7637    0.7937   -3.5405 C.ar      1 ACP         0.7201
     30 N3         -1.9788   -0.0343   -2.8140 N.ar      1 ACP        -0.6849
     31 C4         -2.5915   -0.4902   -1.7174 C.ar      1 ACP         0.6369
     32 HOG2       -5.7501   -2.2209    5.9521 H         1 ACP         0.4781
     33 HOG3       -3.8959   -3.3322    3.6850 H         1 ACP         0.4781
     34 H3B1       -4.6740   -5.8712    6.4926 H         1 ACP         0.1236
     35 H3B2       -4.7706   -5.6002    4.7554 H         1 ACP         0.1236
     36 HOA2        1.2178   -6.3858    3.3411 H         1 ACP         0.4716
     37 H5'1       -1.7611   -3.4417    2.4168 H         1 ACP         0.0529
     38 H5'2       -0.1868   -3.8712    3.1345 H         1 ACP         0.0529
     39 H4'         0.8886   -3.6448    0.8780 H         1 ACP         0.1213
     40 H3'        -0.7374   -1.2358    1.9870 H         1 ACP         0.0524
     41 HO3'        1.3408   -0.4870    2.3219 H         1 ACP         0.4707
     42 H2'        -0.0384   -0.0310    0.0096 H         1 ACP         0.0774
     43 HO2'        2.1463   -0.7958    0.0370 H         1 ACP         0.4561
     44 H1'        -0.4769   -2.1002   -1.8093 H         1 ACP         0.1559
     45 H8         -3.0031   -2.1011    0.9891 H         1 ACP         0.2754
     46 HN61       -6.3271    0.6117   -0.9836 H         1 ACP         0.4584
     47 HN62       -6.4471    1.6092   -2.4083 H         1 ACP         0.4584
     48 H2         -2.3243    1.1986   -4.4449 H         1 ACP         0.0892
     49 H49        -5.0436   -0.7722    0.3425 H         1 ACP         0.5039
@<TRIPOS>BOND
     1    1    2 2
     2    1    3 1
     3    1    4 1
     4    1    8 1
     5    3   32 1
     6    4   33 1
     7    5    6 2
     8    5    7 1
     9    5    8 1
    10    5   12 1
    11    8   34 1
    12    8   35 1
    13    9   10 2
    14    9   11 1
    15    9   12 1
    16    9   13 1
    17   11   36 1
    18   13   14 1
    19   14   15 1
    20   14   37 1
    21   14   38 1
    22   15   16 1
    23   15   17 1
    24   15   39 1
    25   16   21 1
    26   17   18 1
    27   17   19 1
    28   17   40 1
    29   18   41 1
    30   19   20 1
    31   19   21 1
    32   19   42 1
    33   20   43 1
    34   21   22 1
    35   21   44 1
    36   22   23 ar
    37   22   31 ar
    38   23   24 ar
    39   23   45 1
    40   24   25 ar
    41   24   49 1
    42   25   26 ar
    43   25   31 ar
    44   26   27 1
    45   26   28 ar
    46   27   46 1
    47   27   47 1
    48   28   29 ar
    49   29   30 ar
    50   29   48 1
    51   30   31 ar
@<TRIPOS>SUBSTRUCTURE
     1 ACP         1 GROUP 0 A     ****
@<TRIPOS>MOLECULE
[[5-(6-amino-7,8-dihydropurin-8-ylium-9-yl)-3,4-dihydroxy-tetrahydrofuran-2-yl]methoxy-hydroxy-phosphoryl]oxy-(phosphonomethyl)phosphinate
   49    51     1     0     0
SMALL
USER_CHARGES

@<TRIPOS>ATOM
      1 PG         -0.5269   -1.8959   -6.9610 P.3       1 ACP         1.6362
      2 O1G        -0.5431   -1.2136   -8.2958 O.2       1 ACP        -0.8691
      3 O2G        -1.7255   -2.9480   -6.7031 O.3       1 ACP        -0.8016
      4 O3G         0.8054   -2.7494   -6.6350 O.3       1 ACP        -0.8016
      5 PB          0.5959    0.5556   -5.2253 P.3       1 ACP         1.4874
      6 O1B         0.1608    1.2796   -3.9723 O.co2     1 ACP        -0.8240
      7 O2B         0.8323    1.2771   -6.5318 O.co2     1 ACP        -0.8240
      8 C3B        -0.6497   -0.7728   -5.5504 C.3       1 ACP        -0.6510
      9 PA          3.3384   -0.0297   -4.3151 P.3       1 ACP         1.7966
     10 O1A         4.1258    0.9106   -5.1809 O.2       1 ACP        -0.8436
     11 O2A         4.0360   -1.4716   -4.0883 O.3       1 ACP        -0.8190
     12 O3A         1.8718   -0.4013   -4.8868 O.3       1 ACP        -0.7947
     13 O5'         3.0190    0.5130   -2.8246 O.3       1 ACP        -0.5846
     14 C5'         2.2816   -0.2918   -1.9206 C.3       1 ACP         0.2005
     15 C4'         2.7248    0.0226   -0.4980 C.3       1 ACP         0.0711
     16 O4'         2.4697    1.4219   -0.2462 O.3       1 ACP        -0.4064
     17 C3'         1.9404   -0.7419    0.5596 C.3       1 ACP         0.0975
     18 O3'         2.7418   -0.8086    1.7389 O.3       1 ACP        -0.5957
     19 C2'         0.7477    0.1630    0.7858 C.3       1 ACP         0.1195
     20 O2'         0.1373   -0.0577    2.0407 O.3       1 ACP        -0.5845
     21 C1'         1.3733    1.5427    0.6747 C.3       1 ACP         0.4064
     22 N9          0.4520    2.5240    0.1767 N.pl3     1 ACP        -0.5630
     23 C8          0.5305    3.2394   -0.9358 C.ar      1 ACP         0.2808
     24 N7         -0.4966    4.0680   -1.1145 N.pl3     1 ACP        -0.5040
     25 C5         -1.2879    3.8664   -0.0375 C.ar      1 ACP        -0.2807
     26 C6         -2.4754    4.4084    0.3577 C.ar      1 ACP         0.7712
     27 N6         -3.0892    5.3882   -0.4495 N.pl3     1 ACP        -0.9461
     28 N1         -3.0632    4.0158    1.5092 N.ar      1 ACP        -0.7457
     29 C2         -2.4008    3.0654    2.2262 C.ar      1 ACP         0.7201
     30 N3         -1.2259    2.4663    1.9260 N.ar      1 ACP        -0.6849
     31 C4         -0.7062    2.9047    0.7757 C.ar      1 ACP         0.6369
     32 HOG2       -1.8177   -3.7197   -7.3015 H         1 ACP         0.4781
     33 HOG3        0.8716   -3.2175   -5.7755 H         1 ACP         0.4781
     34 H3B1       -1.6180   -0.2654   -5.6273 H         1 ACP         0.1236
     35 H3B2       -0.6820   -1.3853   -4.6422 H         1 ACP         0.1236
     36 HOA2        4.2237   -2.0356   -4.8687 H         1 ACP         0.4716
     37 H5'1        1.2149   -0.0786   -2.0446 H         1 ACP         0.0529
     38 H5'2        2.4640   -1.3459   -2.1539 H         1 ACP         0.0529
     39 H4'         3.8049   -0.1388   -0.4009 H         1 ACP         0.1213
     40 H3'         1.6783   -1.7629    0.2715 H         1 ACP         0.0524
     41 HO3'        3.5554   -1.2733    1.4914 H         1 ACP         0.4707
     42 H2'        -0.0011    0.0027    0.0003 H         1 ACP         0.0774
     43 HO2'       -0.1563   -0.9855    2.0596 H         1 ACP         0.4561
     44 H1'         1.7826    1.9024    1.6451 H         1 ACP         0.1559
     45 H8          1.3437    3.1645   -1.6367 H         1 ACP         0.2754
     46 HN61       -2.6210    5.7042   -1.2748 H         1 ACP         0.4584
     47 HN62       -3.9356    5.8187   -0.1356 H         1 ACP         0.4584
     48 H2         -2.8752    2.7532    3.1495 H         1 ACP         0.0892
     49 H49        -0.6372    4.7004   -1.8900 H         1 ACP         0.5039
@<TRIPOS>BOND
     1    1    2 2
     2    1    3 1
     3    1    4 1
     4    1    8 1
     5    3   32 1
     6    4   33 1
     7    5    6 2
     8    5    7 1
     9    5    8 1
    10    5   12 1
    11    8   34 1
    12    8   35 1
    13    9   10 2
    14    9   11 1
    15    9   12 1
    16    9   13 1
    17   11   36 1
    18   13   14 1
    19   14   15 1
    20   14   37 1
    21   14   38 1
    22   15   16 1
    23   15   17 1
    24   15   39 1
    25   16   21 1
    26   17   18 1
    27   17   19 1
    28   17   40 1
    29   18   41 1
    30   19   20 1
    31   19   21 1
    32   19   42 1
    33   20   43 1
    34   21   22 1
    35   21   44 1
    36   22   23 ar
    37   22   31 ar
    38   23   24 ar
    39   23   45 1
    40   24   25 ar
    41   24   49 1
    42   25   26 ar
    43   25   31 ar
    44   26   27 1
    45   26   28 ar
    46   27   46 1
    47   27   47 1
    48   28   29 ar
    49   29   30 ar
    50   29   48 1
    51   30   31 ar
@<TRIPOS>SUBSTRUCTURE
     1 ACP         1 GROUP 0 A     ****
@<TRIPOS>MOLECULE
[[5-(6-amino-7,8-dihydropurin-8-ylium-9-yl)-3,4-dihydroxy-tetrahydrofuran-2-yl]methoxy-hydroxy-phosphoryl]oxy-(phosphonomethyl)phosphinate
   49    51     1     0     0
SMALL
USER_CHARGES

@<TRIPOS>ATOM
      1 PG         -0.6168   -1.4764   -7.0257 P.3       1 ACP         1.6362
      2 O1G         0.2989   -2.6528   -6.8673 O.2       1 ACP        -0.8691
      3 O2G        -0.4339   -0.6315   -8.3905 O.3       1 ACP        -0.8016
      4 O3G        -2.1955   -1.8182   -6.9983 O.3       1 ACP        -0.8016
      5 PB          1.1419    0.6718   -5.4211 P.3       1 ACP         1.4874
      6 O1B         0.8969    1.6307   -4.2792 O.co2     1 ACP        -0.8240
      7 O2B         1.6693    1.1317   -6.7605 O.co2     1 ACP        -0.8240
      8 C3B        -0.4464   -0.2225   -5.7353 C.3       1 ACP        -0.6510
      9 PA          3.4946   -0.6448   -4.2278 P.3       1 ACP         1.7966
     10 O1A         4.5894   -0.1038   -5.1010 O.2       1 ACP        -0.8436
     11 O2A         3.6755   -2.1987   -3.8153 O.3       1 ACP        -0.8190
     12 O3A         2.0199   -0.5952   -4.8900 O.3       1 ACP        -0.7947
     13 O5'         3.2874    0.1331   -2.8242 O.3       1 ACP        -0.5846
     14 C5'         2.2816   -0.2918   -1.9206 C.3       1 ACP         0.2005
     15 C4'         2.7248    0.0226   -0.4980 C.3       1 ACP         0.0711
     16 O4'         2.4697    1.4219   -0.2462 O.3       1 ACP        -0.4064
     17 C3'         1.9404   -0.7419    0.5596 C.3       1 ACP         0.0975
     18 O3'         2.7418   -0.8086    1.7389 O.3       1 ACP        -0.5957
     19 C2'         0.7477    0.1630    0.7858 C.3       1 ACP         0.1195
     20 O2'         0.1373   -0.0577    2.0407 O.3       1 ACP        -0.5845
     21 C1'         1.3733    1.5427    0.6747 C.3       1 ACP         0.4064
     22 N9          0.4520    2.5240    0.1767 N.pl3     1 ACP        -0.5630
     23 C8         -0.2172    2.5216   -0.9668 C.ar      1 ACP         0.2808
     24 N7         -1.0011    3.5855   -1.1321 N.pl3     1 ACP        -0.5040
     25 C5         -0.8184    4.3200   -0.0123 C.ar      1 ACP        -0.2807
     26 C6         -1.3349    5.5079    0.4144 C.ar      1 ACP         0.7712
     27 N6         -2.2567    6.1930   -0.4036 N.pl3     1 ACP        -0.9461
     28 N1         -0.9716    6.0291    1.6069 N.ar      1 ACP        -0.7457
     29 C2         -0.0765    5.3009    2.3312 C.ar      1 ACP         0.7201
     30 N3          0.4933    4.1191    2.0023 N.ar      1 ACP        -0.6849
     31 C4          0.0865    3.6675    0.8123 C.ar      1 ACP         0.6369
     32 HOG2        0.4336   -0.2141   -8.5786 H         1 ACP         0.4781
     33 HOG3       -2.5616   -2.4281   -7.6738 H         1 ACP         0.4781
     34 H3B1       -1.1932    0.5528   -5.9405 H         1 ACP         0.1236
     35 H3B2       -0.7241   -0.6886   -4.7830 H         1 ACP         0.1236
     36 HOA2        4.4752   -2.4663   -3.3143 H         1 ACP         0.4716
     37 H5'1        1.3494    0.2322   -2.1552 H         1 ACP         0.0529
     38 H5'2        2.1260   -1.3686   -2.0435 H         1 ACP         0.0529
     39 H4'         3.8049   -0.1388   -0.4009 H         1 ACP         0.1213
     40 H3'         1.6783   -1.7629    0.2715 H         1 ACP         0.0524
     41 HO3'        2.2232   -1.2979    2.3953 H         1 ACP         0.4707
     42 H2'        -0.0011    0.0027    0.0003 H         1 ACP         0.0774
     43 HO2'       -0.1563   -0.9855    2.0596 H         1 ACP         0.4561
     44 H1'         1.7826    1.9024    1.6451 H         1 ACP         0.1559
     45 H8         -0.1423    1.7373   -1.6999 H         1 ACP         0.2754
     46 HN61       -2.4811    5.8206   -1.3042 H         1 ACP         0.4584
     47 HN62       -2.5986    7.0863   -0.1113 H         1 ACP         0.4584
     48 H2          0.2128    5.7222    3.2871 H         1 ACP         0.0892
     49 H49        -1.5947    3.7835   -1.9255 H         1 ACP         0.5039
@<TRIPOS>BOND
     1    1    2 2
     2    1    3 1
     3    1    4 1
     4    1    8 1
     5    3   32 1
     6    4   33 1
     7    5    6 2
     8    5    7 1
     9    5    8 1
    10    5   12 1
    11    8   34 1
    12    8   35 1
    13    9   10 2
    14    9   11 1
    15    9   12 1
    16    9   13 1
    17   11   36 1
    18   13   14 1
    19   14   15 1
    20   14   37 1
    21   14   38 1
    22   15   16 1
    23   15   17 1
    24   15   39 1
    25   16   21 1
    26   17   18 1
    27   17   19 1
    28   17   40 1
    29   18   41 1
    30   19   20 1
    31   19   21 1
    32   19   42 1
    33   20   43 1
    34   21   22 1
    35   21   44 1
    36   22   23 ar
    37   22   31 ar
    38   23   24 ar
    39   23   45 1
    40   24   25 ar
    41   24   49 1
    42   25   26 ar
    43   25   31 ar
    44   26   27 1
    45   26   28 ar
    46   27   46 1
    47   27   47 1
    48   28   29 ar
    49   29   30 ar
    50   29   48 1
    51   30   31 ar
@<TRIPOS>SUBSTRUCTURE
     1 ACP         1 GROUP 0 A     ****
@<TRIPOS>MOLECULE
[[5-(6-amino-7,8-dihydropurin-8-ylium-9-yl)-3,4-dihydroxy-tetrahydrofuran-2-yl]methoxy-hydroxy-phosphoryl]oxy-(phosphonomethyl)phosphinate
   49    51     1     0     0
SMALL
USER_CHARGES

@<TRIPOS>ATOM
      1 PG         -5.4364   -5.2830    4.3912 P.3       1 ACP         1.6362
      2 O1G        -4.9640   -4.7444    3.0743 O.2       1 ACP        -0.8691
      3 O2G        -6.5597   -4.3974    5.1422 O.3       1 ACP        -0.8016
      4 O3G        -6.0867   -6.7610    4.3426 O.3       1 ACP        -0.8016
      5 PB         -2.6509   -6.5208    5.3872 P.3       1 ACP         1.4874
      6 O1B        -3.1482   -7.9334    5.1851 O.co2     1 ACP        -0.8240
      7 O2B        -1.6548   -6.1638    6.4660 O.co2     1 ACP        -0.8240
      8 C3B        -4.1368   -5.4477    5.6364 C.3       1 ACP        -0.6510
      9 PA         -1.0079   -6.4122    2.9416 P.3       1 ACP         1.7966
     10 O1A        -1.2140   -7.7993    2.4057 O.2       1 ACP        -0.8436
     11 O2A         0.3591   -6.2182    3.7848 O.3       1 ACP        -0.8190
     12 O3A        -2.1587   -5.9067    3.9593 O.3       1 ACP        -0.7947
     13 O5'        -0.9731   -5.2421    1.8246 O.3       1 ACP        -0.5846
     14 C5'        -0.7840   -3.8935    2.2172 C.3       1 ACP         0.2005
     15 C4'        -0.0724   -3.1466    1.1027 C.3       1 ACP         0.0711
     16 O4'        -0.8674   -3.1929   -0.0945 O.3       1 ACP        -0.4064
     17 C3'         0.1338   -1.6715    1.4027 C.3       1 ACP         0.0975
     18 O3'         1.2893   -1.4445    2.1808 O.3       1 ACP        -0.5957
     19 C2'         0.2158   -1.0724    0.0128 C.3       1 ACP         0.1195
     20 O2'         1.5141   -1.2448   -0.5513 O.3       1 ACP        -0.5845
     21 C1'        -0.7897   -1.9176   -0.7583 C.3       1 ACP         0.4064
     22 N9         -2.1040   -1.3333   -0.7704 N.pl3     1 ACP        -0.5630
     23 C8         -3.0822   -1.4850    0.1102 C.ar      1 ACP         0.2808
     24 N7         -4.1844   -0.7999   -0.1888 N.pl3     1 ACP        -0.5040
     25 C5         -3.8875   -0.1651   -1.3445 C.ar      1 ACP        -0.2807
     26 C6         -4.5941    0.6799   -2.1486 C.ar      1 ACP         0.7712
     27 N6         -5.9138    1.0274   -1.7939 N.pl3     1 ACP        -0.9461
     28 N1         -4.0421    1.1824   -3.2748 N.ar      1 ACP        -0.7457
     29 C2         -2.7637    0.7937   -3.5405 C.ar      1 ACP         0.7201
     30 N3         -1.9788   -0.0343   -2.8140 N.ar      1 ACP        -0.6849
     31 C4         -2.5915   -0.4902   -1.7174 C.ar      1 ACP         0.6369
     32 HOG2       -7.4166   -4.2361    4.6929 H         1 ACP         0.4781
     33 HOG3       -6.4133   -7.1643    5.1750 H         1 ACP         0.4781
     34 H3B1       -3.7517   -4.4409    5.8336 H         1 ACP         0.1236
     35 H3B2       -4.6087   -5.7956    6.5624 H         1 ACP         0.1236
     36 HOA2        1.2178   -6.3858    3.3411 H         1 ACP         0.4716
     37 H5'1       -1.7611   -3.4417    2.4168 H         1 ACP         0.0529
     38 H5'2       -0.1868   -3.8712    3.1345 H         1 ACP         0.0529
     39 H4'         0.8886   -3.6448    0.8780 H         1 ACP         0.1213
     40 H3'        -0.7374   -1.2358    1.9870 H         1 ACP         0.0524
     41 HO3'        1.3408   -0.4870    2.3219 H         1 ACP         0.4707
     42 H2'        -0.0384   -0.0310    0.0096 H         1 ACP         0.0774
     43 HO2'        2.1463   -0.7958    0.0370 H         1 ACP         0.4561
     44 H1'        -0.4769   -2.1002   -1.8093 H         1 ACP         0.1559
     45 H8         -3.0031   -2.1011    0.9891 H         1 ACP         0.2754
     46 HN61       -6.3271    0.6117   -0.9836 H         1 ACP         0.4584
     47 HN62       -6.4471    1.6092   -2.4083 H         1 ACP         0.4584
     48 H2         -2.3243    1.1986   -4.4449 H         1 ACP         0.0892
     49 H49        -5.0436   -0.7722    0.3425 H         1 ACP         0.5039
@<TRIPOS>BOND
     1    1    2 2
     2    1    3 1
     3    1    4 1
     4    1    8 1
     5    3   32 1
     6    4   33 1
     7    5    6 2
     8    5    7 1
     9    5    8 1
    10    5   12 1
    11    8   34 1
    12    8   35 1
    13    9   10 2
    14    9   11 1
    15    9   12 1
    16    9   13 1
    17   11   36 1
    18   13   14 1
    19   14   15 1
    20   14   37 1
    21   14   38 1
    22   15   16 1
    23   15   17 1
    24   15   39 1
    25   16   21 1
    26   17   18 1
    27   17   19 1
    28   17   40 1
    29   18   41 1
    30   19   20 1
    31   19   21 1
    32   19   42 1
    33   20   43 1
    34   21   22 1
    35   21   44 1
    36   22   23 ar
    37   22   31 ar
    38   23   24 ar
    39   23   45 1
    40   24   25 ar
    41   24   49 1
    42   25   26 ar
    43   25   31 ar
    44   26   27 1
    45   26   28 ar
    46   27   46 1
    47   27   47 1
    48   28   29 ar
    49   29   30 ar
    50   29   48 1
    51   30   31 ar
@<TRIPOS>SUBSTRUCTURE
     1 ACP         1 GROUP 0 A     ****
@<TRIPOS>MOLECULE
[[5-(6-amino-7,8-dihydropurin-8-ylium-9-yl)-3,4-dihydroxy-tetrahydrofuran-2-yl]methoxy-hydroxy-phosphoryl]oxy-(phosphonomethyl)phosphinate
   49    51     1     0     0
SMALL
USER_CHARGES

@<TRIPOS>ATOM
      1 PG         -2.0958   -9.3276    4.3657 P.3       1 ACP         1.6362
      2 O1G        -3.0413  -10.3008    3.7284 O.2       1 ACP        -0.8691
      3 O2G        -2.7887   -8.1174    5.1815 O.3       1 ACP        -0.8016
      4 O3G        -1.0618   -9.9626    5.4321 O.3       1 ACP        -0.8016
      5 PB          0.2440   -7.2259    3.7400 P.3       1 ACP         1.4874
      6 O1B         0.9518   -6.7368    2.4977 O.co2     1 ACP        -0.8240
      7 O2B         0.9908   -7.8195    4.9119 O.co2     1 ACP        -0.8240
      8 C3B        -1.0099   -8.4741    3.2000 C.3       1 ACP        -0.6510
      9 PA         -0.5051   -4.5580    4.7469 P.3       1 ACP         1.7966
     10 O1A         0.4194   -4.4346    5.9232 O.2       1 ACP        -0.8436
     11 O2A        -1.9864   -3.9569    4.9955 O.3       1 ACP        -0.8190
     12 O3A        -0.7854   -6.0774    4.2686 O.3       1 ACP        -0.7947
     13 O5'         0.0089   -3.8407    3.3906 O.3       1 ACP        -0.5846
     14 C5'        -0.7840   -3.8935    2.2172 C.3       1 ACP         0.2005
     15 C4'        -0.0724   -3.1466    1.1027 C.3       1 ACP         0.0711
     16 O4'        -0.8674   -3.1929   -0.0945 O.3       1 ACP        -0.4064
     17 C3'         0.1338   -1.6715    1.4027 C.3       1 ACP         0.0975
     18 O3'         1.2893   -1.4445    2.1808 O.3       1 ACP        -0.5957
     19 C2'         0.2158   -1.0724    0.0128 C.3       1 ACP         0.1195
     20 O2'         1.5141   -1.2448   -0.5513 O.3       1 ACP        -0.5845
     21 C1'        -0.7897   -1.9176   -0.7583 C.3       1 ACP         0.4064
     22 N9         -2.1040   -1.3333   -0.7704 N.pl3     1 ACP        -0.5630
     23 C8         -3.0822   -1.4850    0.1102 C.ar      1 ACP         0.2808
     24 N7         -4.1844   -0.7999   -0.1888 N.pl3     1 ACP        -0.5040
     25 C5         -3.8875   -0.1651   -1.3445 C.ar      1 ACP        -0.2807
     26 C6         -4.5941    0.6799   -2.1486 C.ar      1 ACP         0.7712
     27 N6         -5.9138    1.0274   -1.7939 N.pl3     1 ACP        -0.9461
     28 N1         -4.0421    1.1824   -3.2748 N.ar      1 ACP        -0.7457
     29 C2         -2.7637    0.7937   -3.5405 C.ar      1 ACP         0.7201
     30 N3         -1.9788   -0.0343   -2.8140 N.ar      1 ACP        -0.6849
     31 C4         -2.5915   -0.4902   -1.7174 C.ar      1 ACP         0.6369
     32 HOG2       -2.2175   -7.4507    5.6191 H         1 ACP         0.4781
     33 HOG3       -1.4167  -10.4194    6.2244 H         1 ACP         0.4781
     34 H3B1       -0.4524   -9.2454    2.6568 H         1 ACP         0.1236
     35 H3B2       -1.6465   -7.9652    2.4673 H         1 ACP         0.1236
     36 HOA2       -2.0810   -3.0066    5.2194 H         1 ACP         0.4716
     37 H5'1       -0.9362   -4.9413    1.9386 H         1 ACP         0.0529
     38 H5'2       -1.7563   -3.4348    2.4248 H         1 ACP         0.0529
     39 H4'         0.8886   -3.6448    0.8780 H         1 ACP         0.1213
     40 H3'        -0.7374   -1.2358    1.9870 H         1 ACP         0.0524
     41 HO3'        1.1626   -1.9325    3.0084 H         1 ACP         0.4707
     42 H2'        -0.0384   -0.0310    0.0096 H         1 ACP         0.0774
     43 HO2'        2.1463   -0.7958    0.0370 H         1 ACP         0.4561
     44 H1'        -0.4769   -2.1002   -1.8093 H         1 ACP         0.1559
     45 H8         -3.0031   -2.1011    0.9891 H         1 ACP         0.2754
     46 HN61       -6.3271    0.6117   -0.9836 H         1 ACP         0.4584
     47 HN62       -6.4471    1.6092   -2.4083 H         1 ACP         0.4584
     48 H2         -2.3243    1.1986   -4.4449 H         1 ACP         0.0892
     49 H49        -5.0436   -0.7722    0.3425 H         1 ACP         0.5039
@<TRIPOS>BOND
     1    1    2 2
     2    1    3 1
     3    1    4 1
     4    1    8 1
     5    3   32 1
     6    4   33 1
     7    5    6 2
     8    5    7 1
     9    5    8 1
    10    5   12 1
    11    8   34 1
    12    8   35 1
    13    9   10 2
    14    9   11 1
    15    9   12 1
    16    9   13 1
    17   11   36 1
    18   13   14 1
    19   14   15 1
    20   14   37 1
    21   14   38 1
    22   15   16 1
    23   15   17 1
    24   15   39 1
    25   16   21 1
    26   17   18 1
    27   17   19 1
    28   17   40 1
    29   18   41 1
    30   19   20 1
    31   19   21 1
    32   19   42 1
    33   20   43 1
    34   21   22 1
    35   21   44 1
    36   22   23 ar
    37   22   31 ar
    38   23   24 ar
    39   23   45 1
    40   24   25 ar
    41   24   49 1
    42   25   26 ar
    43   25   31 ar
    44   26   27 1
    45   26   28 ar
    46   27   46 1
    47   27   47 1
    48   28   29 ar
    49   29   30 ar
    50   29   48 1
    51   30   31 ar
@<TRIPOS>SUBSTRUCTURE
     1 ACP         1 GROUP 0 A     ****
@<TRIPOS>MOLECULE
[[5-(6-amino-7,8-dihydropurin-8-ylium-9-yl)-3,4-dihydroxy-tetrahydrofuran-2-yl]methoxy-hydroxy-phosphoryl]oxy-(phosphonomethyl)phosphinate
   49    51     1     0     0
SMALL
USER_CHARGES

@<TRIPOS>ATOM
      1 PG          3.5066    1.8576   -5.6387 P.3       1 ACP         1.6362
      2 O1G         2.0427    1.6296   -5.4094 O.2       1 ACP        -0.8691
      3 O2G         3.8729    2.8550   -6.8556 O.3       1 ACP        -0.8016
      4 O3G         4.3170    2.4738   -4.3843 O.3       1 ACP        -0.8016
      5 PB          4.5355   -1.0840   -4.8827 P.3       1 ACP         1.4874
      6 O1B         5.1584   -0.5907   -3.5973 O.co2     1 ACP        -0.8240
      7 O2B         5.1110   -2.2419   -5.6645 O.co2     1 ACP        -0.8240
      8 C3B         4.4392    0.3607   -6.0338 C.3       1 ACP        -0.6510
      9 PA          2.1469   -2.2812   -3.6362 P.3       1 ACP         1.7966
     10 O1A         2.4486   -3.7424   -3.8027 O.2       1 ACP        -0.8436
     11 O2A         0.5931   -1.8902   -3.8605 O.3       1 ACP        -0.8190
     12 O3A         2.9361   -1.3107   -4.6613 O.3       1 ACP        -0.7947
     13 O5'         2.5233   -1.6622   -2.1894 O.3       1 ACP        -0.5846
     14 C5'         2.2816   -0.2918   -1.9206 C.3       1 ACP         0.2005
     15 C4'         2.7248    0.0226   -0.4980 C.3       1 ACP         0.0711
     16 O4'         2.4697    1.4219   -0.2462 O.3       1 ACP        -0.4064
     17 C3'         1.9404   -0.7419    0.5596 C.3       1 ACP         0.0975
     18 O3'         2.7418   -0.8086    1.7389 O.3       1 ACP        -0.5957
     19 C2'         0.7477    0.1630    0.7858 C.3       1 ACP         0.1195
     20 O2'         0.1373   -0.0577    2.0407 O.3       1 ACP        -0.5845
     21 C1'         1.3733    1.5427    0.6747 C.3       1 ACP         0.4064
     22 N9          0.4520    2.5240    0.1767 N.pl3     1 ACP        -0.5630
     23 C8         -0.8602    2.5861    0.3496 C.ar      1 ACP         0.2808
     24 N7         -1.4308    3.6326   -0.2443 N.pl3     1 ACP        -0.5040
     25 C5         -0.4080    4.2856   -0.8394 C.ar      1 ACP        -0.2807
     26 C6         -0.3432    5.4196   -1.5943 C.ar      1 ACP         0.7712
     27 N6         -1.5276    6.1333   -1.8702 N.pl3     1 ACP        -0.9461
     28 N1          0.8395    5.8603   -2.0764 N.ar      1 ACP        -0.7457
     29 C2          1.9319    5.1095   -1.7617 C.ar      1 ACP         0.7201
     30 N3          1.9773    3.9761   -1.0249 N.ar      1 ACP        -0.6849
     31 C4          0.7724    3.6031   -0.5836 C.ar      1 ACP         0.6369
     32 HOG2        4.8162    3.0404   -7.0509 H         1 ACP         0.4781
     33 HOG3        4.0488    3.3475   -4.0280 H         1 ACP         0.4781
     34 H3B1        4.0353   -0.0302   -6.9746 H         1 ACP         0.1236
     35 H3B2        5.4750    0.6592   -6.2312 H         1 ACP         0.1236
     36 HOA2       -0.0865   -2.2971   -3.2819 H         1 ACP         0.4716
     37 H5'1        2.8428    0.3150   -2.6387 H         1 ACP         0.0529
     38 H5'2        1.2124   -0.0896   -2.0417 H         1 ACP         0.0529
     39 H4'         3.8049   -0.1388   -0.4009 H         1 ACP         0.1213
     40 H3'         1.6783   -1.7629    0.2715 H         1 ACP         0.0524
     41 HO3'        2.2232   -1.2979    2.3953 H         1 ACP         0.4707
     42 H2'        -0.0011    0.0027    0.0003 H         1 ACP         0.0774
     43 HO2'       -0.1563   -0.9855    2.0596 H         1 ACP         0.4561
     44 H1'         1.7826    1.9024    1.6451 H         1 ACP         0.1559
     45 H8         -1.4217    1.8638    0.9164 H         1 ACP         0.2754
     46 HN61       -2.4023    5.7711   -1.5477 H         1 ACP         0.4584
     47 HN62       -1.4856    6.9379   -2.4627 H         1 ACP         0.4584
     48 H2          2.8789    5.4660   -2.1503 H         1 ACP         0.0892
     49 H49        -2.4129    3.8706   -0.2402 H         1 ACP         0.5039
@<TRIPOS>BOND
     1    1    2 2
     2    1    3 1
     3    1    4 1
     4    1    8 1
     5    3   32 1
     6    4   33 1
     7    5    6 2
     8    5    7 1
     9    5    8 1
    10    5   12 1
    11    8   34 1
    12    8   35 1
    13    9   10 2
    14    9   11 1
    15    9   12 1
    16    9   13 1
    17   11   36 1
    18   13   14 1
    19   14   15 1
    20   14   37 1
    21   14   38 1
    22   15   16 1
    23   15   17 1
    24   15   39 1
    25   16   21 1
    26   17   18 1
    27   17   19 1
    28   17   40 1
    29   18   41 1
    30   19   20 1
    31   19   21 1
    32   19   42 1
    33   20   43 1
    34   21   22 1
    35   21   44 1
    36   22   23 ar
    37   22   31 ar
    38   23   24 ar
    39   23   45 1
    40   24   25 ar
    41   24   49 1
    42   25   26 ar
    43   25   31 ar
    44   26   27 1
    45   26   28 ar
    46   27   46 1
    47   27   47 1
    48   28   29 ar
    49   29   30 ar
    50   29   48 1
    51   30   31 ar
@<TRIPOS>SUBSTRUCTURE
     1 ACP         1 GROUP 0 A     ****
@<TRIPOS>MOLECULE
[[5-(6-amino-7,8-dihydropurin-8-ylium-9-yl)-3,4-dihydroxy-tetrahydrofuran-2-yl]methoxy-hydroxy-phosphoryl]oxy-(phosphonomethyl)phosphinate
   49    51     1     0     0
SMALL
USER_CHARGES

@<TRIPOS>ATOM
      1 PG         -3.7830   -7.5947    3.4317 P.3       1 ACP         1.6362
      2 O1G        -3.0673   -6.8969    2.3145 O.2       1 ACP        -0.8691
      3 O2G        -5.2909   -7.0886    3.7152 O.3       1 ACP        -0.8016
      4 O3G        -3.9438   -9.1930    3.2607 O.3       1 ACP        -0.8016
      5 PB         -2.6891   -5.7945    5.8495 P.3       1 ACP         1.4874
      6 O1B        -2.0044   -6.0613    7.1700 O.co2     1 ACP        -0.8240
      7 O2B        -3.9785   -5.0124    5.7540 O.co2     1 ACP        -0.8240
      8 C3B        -2.9813   -7.4336    5.0435 C.3       1 ACP        -0.6510
      9 PA         -0.6978   -3.8657    4.8460 P.3       1 ACP         1.7966
     10 O1A         0.2441   -3.8050    6.0134 O.2       1 ACP        -0.8436
     11 O2A        -1.7814   -2.6653    4.7989 O.3       1 ACP        -0.8190
     12 O3A        -1.6064   -5.2022    4.7840 O.3       1 ACP        -0.7947
     13 O5'         0.0089   -3.8407    3.3906 O.3       1 ACP        -0.5846
     14 C5'        -0.7840   -3.8935    2.2172 C.3       1 ACP         0.2005
     15 C4'        -0.0724   -3.1466    1.1027 C.3       1 ACP         0.0711
     16 O4'        -0.8674   -3.1929   -0.0945 O.3       1 ACP        -0.4064
     17 C3'         0.1338   -1.6715    1.4027 C.3       1 ACP         0.0975
     18 O3'         1.2893   -1.4445    2.1808 O.3       1 ACP        -0.5957
     19 C2'         0.2158   -1.0724    0.0128 C.3       1 ACP         0.1195
     20 O2'         1.5141   -1.2448   -0.5513 O.3       1 ACP        -0.5845
     21 C1'        -0.7897   -1.9176   -0.7583 C.3       1 ACP         0.4064
     22 N9         -2.1040   -1.3333   -0.7704 N.pl3     1 ACP        -0.5630
     23 C8         -3.0822   -1.4850    0.1102 C.ar      1 ACP         0.2808
     24 N7         -4.1844   -0.7999   -0.1888 N.pl3     1 ACP        -0.5040
     25 C5         -3.8875   -0.1651   -1.3445 C.ar      1 ACP        -0.2807
     26 C6         -4.5941    0.6799   -2.1486 C.ar      1 ACP         0.7712
     27 N6         -5.9138    1.0274   -1.7939 N.pl3     1 ACP        -0.9461
     28 N1         -4.0421    1.1824   -3.2748 N.ar      1 ACP        -0.7457
     29 C2         -2.7637    0.7937   -3.5405 C.ar      1 ACP         0.7201
     30 N3         -1.9788   -0.0343   -2.8140 N.ar      1 ACP        -0.6849
     31 C4         -2.5915   -0.4902   -1.7174 C.ar      1 ACP         0.6369
     32 HOG2       -5.8064   -7.5103    4.4353 H         1 ACP         0.4781
     33 HOG3       -4.4319   -9.5413    2.4842 H         1 ACP         0.4781
     34 H3B1       -3.5732   -8.0186    5.7564 H         1 ACP         0.1236
     35 H3B2       -1.9993   -7.9151    4.9736 H         1 ACP         0.1236
     36 HOA2       -1.4616   -1.7397    4.7438 H         1 ACP         0.4716
     37 H5'1       -0.9362   -4.9413    1.9386 H         1 ACP         0.0529
     38 H5'2       -1.7563   -3.4348    2.4248 H         1 ACP         0.0529
     39 H4'         0.8886   -3.6448    0.8780 H         1 ACP         0.1213
     40 H3'        -0.7374   -1.2358    1.9870 H         1 ACP         0.0524
     41 HO3'        1.3408   -0.4870    2.3219 H         1 ACP         0.4707
     42 H2'        -0.0384   -0.0310    0.0096 H         1 ACP         0.0774
     43 HO2'        1.4998   -0.8412   -1.4369 H         1 ACP         0.4561
     44 H1'        -0.4769   -2.1002   -1.8093 H         1 ACP         0.1559
     45 H8         -3.0031   -2.1011    0.9891 H         1 ACP         0.2754
     46 HN61       -6.3271    0.6117   -0.9836 H         1 ACP         0.4584
     47 HN62       -6.4471    1.6092   -2.4083 H         1 ACP         0.4584
     48 H2         -2.3243    1.1986   -4.4449 H         1 ACP         0.0892
     49 H49        -5.0436   -0.7722    0.3425 H         1 ACP         0.5039
@<TRIPOS>BOND
     1    1    2 2
     2    1    3 1
     3    1    4 1
     4    1    8 1
     5    3   32 1
     6    4   33 1
     7    5    6 2
     8    5    7 1
     9    5    8 1
    10    5   12 1
    11    8   34 1
    12    8   35 1
    13    9   10 2
    14    9   11 1
    15    9   12 1
    16    9   13 1
    17   11   36 1
    18   13   14 1
    19   14   15 1
    20   14   37 1
    21   14   38 1
    22   15   16 1
    23   15   17 1
    24   15   39 1
    25   16   21 1
    26   17   18 1
    27   17   19 1
    28   17   40 1
    29   18   41 1
    30   19   20 1
    31   19   21 1
    32   19   42 1
    33   20   43 1
    34   21   22 1
    35   21   44 1
    36   22   23 ar
    37   22   31 ar
    38   23   24 ar
    39   23   45 1
    40   24   25 ar
    41   24   49 1
    42   25   26 ar
    43   25   31 ar
    44   26   27 1
    45   26   28 ar
    46   27   46 1
    47   27   47 1
    48   28   29 ar
    49   29   30 ar
    50   29   48 1
    51   30   31 ar
@<TRIPOS>SUBSTRUCTURE
     1 ACP         1 GROUP 0 A     ****
@<TRIPOS>MOLECULE
[[5-(6-amino-7,8-dihydropurin-8-ylium-9-yl)-3,4-dihydroxy-tetrahydrofuran-2-yl]methoxy-hydroxy-phosphoryl]oxy-(phosphonomethyl)phosphinate
   49    51     1     0     0
SMALL
USER_CHARGES

@<TRIPOS>ATOM
      1 PG         -4.6023   -2.7150    4.2112 P.3       1 ACP         1.6362
      2 O1G        -3.4313   -3.0565    5.0827 O.2       1 ACP        -0.8691
      3 O2G        -5.8654   -2.0537    4.9710 O.3       1 ACP        -0.8016
      4 O3G        -4.2943   -1.6780    3.0113 O.3       1 ACP        -0.8016
      5 PB         -4.3662   -5.1766    2.1697 P.3       1 ACP         1.4874
      6 O1B        -3.8954   -4.2722    1.0543 O.co2     1 ACP        -0.8240
      7 O2B        -5.1815   -6.4216    1.9076 O.co2     1 ACP        -0.8240
      8 C3B        -5.3284   -4.1304    3.3534 C.3       1 ACP        -0.6510
      9 PA         -1.7112   -6.2792    2.8234 P.3       1 ACP         1.7966
     10 O1A        -1.8536   -7.6783    2.2982 O.2       1 ACP        -0.8436
     11 O2A        -0.8909   -6.1678    4.2134 O.3       1 ACP        -0.8190
     12 O3A        -3.1111   -5.5365    3.1461 O.3       1 ACP        -0.7947
     13 O5'        -0.9731   -5.2421    1.8246 O.3       1 ACP        -0.5846
     14 C5'        -0.7840   -3.8935    2.2172 C.3       1 ACP         0.2005
     15 C4'        -0.0724   -3.1466    1.1027 C.3       1 ACP         0.0711
     16 O4'        -0.8674   -3.1929   -0.0945 O.3       1 ACP        -0.4064
     17 C3'         0.1338   -1.6715    1.4027 C.3       1 ACP         0.0975
     18 O3'         1.2893   -1.4445    2.1808 O.3       1 ACP        -0.5957
     19 C2'         0.2158   -1.0724    0.0128 C.3       1 ACP         0.1195
     20 O2'         1.5141   -1.2448   -0.5513 O.3       1 ACP        -0.5845
     21 C1'        -0.7897   -1.9176   -0.7583 C.3       1 ACP         0.4064
     22 N9         -2.1040   -1.3333   -0.7704 N.pl3     1 ACP        -0.5630
     23 C8         -2.6611   -0.5376    0.1306 C.ar      1 ACP         0.2808
     24 N7         -3.9008   -0.1619   -0.1787 N.pl3     1 ACP        -0.5040
     25 C5         -4.1527   -0.7619   -1.3633 C.ar      1 ACP        -0.2807
     26 C6         -5.2376   -0.7682   -2.1896 C.ar      1 ACP         0.7712
     27 N6         -6.3842   -0.0312   -1.8286 N.pl3     1 ACP        -0.9461
     28 N1         -5.2214   -1.4713   -3.3433 N.ar      1 ACP        -0.7457
     29 C2         -4.0737   -2.1541   -3.6127 C.ar      1 ACP         0.7201
     30 N3         -2.9476   -2.2143   -2.8660 N.ar      1 ACP        -0.6849
     31 C4         -3.0383   -1.4958   -1.7429 C.ar      1 ACP         0.6369
     32 HOG2       -5.7417   -1.2070    5.4506 H         1 ACP         0.4781
     33 HOG3       -5.0235   -1.4181    2.4087 H         1 ACP         0.4781
     34 H3B1       -5.7040   -4.8141    4.1231 H         1 ACP         0.1236
     35 H3B2       -6.1999   -3.7677    2.7965 H         1 ACP         0.1236
     36 HOA2        0.0375   -6.4828    4.2426 H         1 ACP         0.4716
     37 H5'1       -1.7611   -3.4417    2.4168 H         1 ACP         0.0529
     38 H5'2       -0.1868   -3.8712    3.1345 H         1 ACP         0.0529
     39 H4'         0.8886   -3.6448    0.8780 H         1 ACP         0.1213
     40 H3'        -0.7374   -1.2358    1.9870 H         1 ACP         0.0524
     41 HO3'        1.3408   -0.4870    2.3219 H         1 ACP         0.4707
     42 H2'        -0.0384   -0.0310    0.0096 H         1 ACP         0.0774
     43 HO2'        2.1463   -0.7958    0.0370 H         1 ACP         0.4561
     44 H1'        -0.4769   -2.1002   -1.8093 H         1 ACP         0.1559
     45 H8         -2.1661   -0.2178    1.0311 H         1 ACP         0.2754
     46 HN61       -6.4010    0.4463   -0.9500 H         1 ACP         0.4584
     47 HN62       -7.1957   -0.0744   -2.4116 H         1 ACP         0.4584
     48 H2         -4.0645   -2.7171   -4.5389 H         1 ACP         0.0892
     49 H49        -4.5050    0.4395    0.3640 H         1 ACP         0.5039
@<TRIPOS>BOND
     1    1    2 2
     2    1    3 1
     3    1    4 1
     4    1    8 1
     5    3   32 1
     6    4   33 1
     7    5    6 2
     8    5    7 1
     9    5    8 1
    10    5   12 1
    11    8   34 1
    12    8   35 1
    13    9   10 2
    14    9   11 1
    15    9   12 1
    16    9   13 1
    17   11   36 1
    18   13   14 1
    19   14   15 1
    20   14   37 1
    21   14   38 1
    22   15   16 1
    23   15   17 1
    24   15   39 1
    25   16   21 1
    26   17   18 1
    27   17   19 1
    28   17   40 1
    29   18   41 1
    30   19   20 1
    31   19   21 1
    32   19   42 1
    33   20   43 1
    34   21   22 1
    35   21   44 1
    36   22   23 ar
    37   22   31 ar
    38   23   24 ar
    39   23   45 1
    40   24   25 ar
    41   24   49 1
    42   25   26 ar
    43   25   31 ar
    44   26   27 1
    45   26   28 ar
    46   27   46 1
    47   27   47 1
    48   28   29 ar
    49   29   30 ar
    50   29   48 1
    51   30   31 ar
@<TRIPOS>SUBSTRUCTURE
     1 ACP         1 GROUP 0 A     ****
@<TRIPOS>MOLECULE
[[5-(6-amino-7,8-dihydropurin-8-ylium-9-yl)-3,4-dihydroxy-tetrahydrofuran-2-yl]methoxy-hydroxy-phosphoryl]oxy-(phosphonomethyl)phosphinate
   49    51     1     0     0
SMALL
USER_CHARGES

@<TRIPOS>ATOM
      1 PG          0.1831   -8.4982    0.7924 P.3       1 ACP         1.6362
      2 O1G        -1.1349   -9.2110    0.7448 O.2       1 ACP        -0.8691
      3 O2G         1.3011   -9.0334   -0.2437 O.3       1 ACP        -0.8016
      4 O3G         0.1232   -6.9103    0.5011 O.3       1 ACP        -0.8016
      5 PB          0.2671   -7.9352    3.9482 P.3       1 ACP         1.4874
      6 O1B         1.2536   -8.1901    5.0642 O.co2     1 ACP        -0.8240
      7 O2B        -1.1573   -8.4368    4.0016 O.co2     1 ACP        -0.8240
      8 C3B         1.0208   -8.5903    2.3912 C.3       1 ACP        -0.6510
      9 PA         -0.0534   -5.0501    4.4638 P.3       1 ACP         1.7966
     10 O1A         0.8302   -4.8821    5.6658 O.2       1 ACP        -0.8436
     11 O2A        -1.6254   -5.2153    4.8082 O.3       1 ACP        -0.8190
     12 O3A         0.2783   -6.3512    3.5622 O.3       1 ACP        -0.7947
     13 O5'         0.0089   -3.8407    3.3906 O.3       1 ACP        -0.5846
     14 C5'        -0.7840   -3.8935    2.2172 C.3       1 ACP         0.2005
     15 C4'        -0.0724   -3.1466    1.1027 C.3       1 ACP         0.0711
     16 O4'        -0.8674   -3.1929   -0.0945 O.3       1 ACP        -0.4064
     17 C3'         0.1338   -1.6715    1.4027 C.3       1 ACP         0.0975
     18 O3'         1.2893   -1.4445    2.1808 O.3       1 ACP        -0.5957
     19 C2'         0.2158   -1.0724    0.0128 C.3       1 ACP         0.1195
     20 O2'         1.5141   -1.2448   -0.5513 O.3       1 ACP        -0.5845
     21 C1'        -0.7897   -1.9176   -0.7583 C.3       1 ACP         0.4064
     22 N9         -2.1040   -1.3333   -0.7704 N.pl3     1 ACP        -0.5630
     23 C8         -3.0822   -1.4850    0.1102 C.ar      1 ACP         0.2808
     24 N7         -4.1844   -0.7999   -0.1888 N.pl3     1 ACP        -0.5040
     25 C5         -3.8875   -0.1651   -1.3445 C.ar      1 ACP        -0.2807
     26 C6         -4.5941    0.6799   -2.1486 C.ar      1 ACP         0.7712
     27 N6         -5.9138    1.0274   -1.7939 N.pl3     1 ACP        -0.9461
     28 N1         -4.0421    1.1824   -3.2748 N.ar      1 ACP        -0.7457
     29 C2         -2.7637    0.7937   -3.5405 C.ar      1 ACP         0.7201
     30 N3         -1.9788   -0.0343   -2.8140 N.ar      1 ACP        -0.6849
     31 C4         -2.5915   -0.4902   -1.7174 C.ar      1 ACP         0.6369
     32 HOG2        1.1115   -9.0025   -1.2056 H         1 ACP         0.4781
     33 HOG3        0.9559   -6.3920    0.5190 H         1 ACP         0.4781
     34 H3B1        1.2338   -9.6483    2.5816 H         1 ACP         0.1236
     35 H3B2        1.9874   -8.0843    2.2873 H         1 ACP         0.1236
     36 HOA2       -2.0841   -4.4933    5.2883 H         1 ACP         0.4716
     37 H5'1       -0.9362   -4.9413    1.9386 H         1 ACP         0.0529
     38 H5'2       -1.7563   -3.4348    2.4248 H         1 ACP         0.0529
     39 H4'         0.8886   -3.6448    0.8780 H         1 ACP         0.1213
     40 H3'        -0.7374   -1.2358    1.9870 H         1 ACP         0.0524
     41 HO3'        1.1626   -1.9325    3.0084 H         1 ACP         0.4707
     42 H2'        -0.0384   -0.0310    0.0096 H         1 ACP         0.0774
     43 HO2'        2.1463   -0.7958    0.0370 H         1 ACP         0.4561
     44 H1'        -0.4769   -2.1002   -1.8093 H         1 ACP         0.1559
     45 H8         -3.0031   -2.1011    0.9891 H         1 ACP         0.2754
     46 HN61       -6.3271    0.6117   -0.9836 H         1 ACP         0.4584
     47 HN62       -6.4471    1.6092   -2.4083 H         1 ACP         0.4584
     48 H2         -2.3243    1.1986   -4.4449 H         1 ACP         0.0892
     49 H49        -5.0436   -0.7722    0.3425 H         1 ACP         0.5039
@<TRIPOS>BOND
     1    1    2 2
     2    1    3 1
     3    1    4 1
     4    1    8 1
     5    3   32 1
     6    4   33 1
     7    5    6 2
     8    5    7 1
     9    5    8 1
    10    5   12 1
    11    8   34 1
    12    8   35 1
    13    9   10 2
    14    9   11 1
    15    9   12 1
    16    9   13 1
    17   11   36 1
    18   13   14 1
    19   14   15 1
    20   14   37 1
    21   14   38 1
    22   15   16 1
    23   15   17 1
    24   15   39 1
    25   16   21 1
    26   17   18 1
    27   17   19 1
    28   17   40 1
    29   18   41 1
    30   19   20 1
    31   19   21 1
    32   19   42 1
    33   20   43 1
    34   21   22 1
    35   21   44 1
    36   22   23 ar
    37   22   31 ar
    38   23   24 ar
    39   23   45 1
    40   24   25 ar
    41   24   49 1
    42   25   26 ar
    43   25   31 ar
    44   26   27 1
    45   26   28 ar
    46   27   46 1
    47   27   47 1
    48   28   29 ar
    49   29   30 ar
    50   29   48 1
    51   30   31 ar
@<TRIPOS>SUBSTRUCTURE
     1 ACP         1 GROUP 0 A     ****
@<TRIPOS>MOLECULE
[[5-(6-amino-7,8-dihydropurin-8-ylium-9-yl)-3,4-dihydroxy-tetrahydrofuran-2-yl]methoxy-hydroxy-phosphoryl]oxy-(phosphonomethyl)phosphinate
   49    51     1     0     0
SMALL
USER_CHARGES

@<TRIPOS>ATOM
      1 PG         -4.6023   -2.7150    4.2112 P.3       1 ACP         1.6362
      2 O1G        -4.0847   -1.6418    3.3014 O.2       1 ACP        -0.8691
      3 O2G        -3.5036   -3.3933    5.1821 O.3       1 ACP        -0.8016
      4 O3G        -5.7755   -2.2590    5.2239 O.3       1 ACP        -0.8016
      5 PB         -4.3662   -5.1766    2.1697 P.3       1 ACP         1.4874
      6 O1B        -3.8954   -4.2722    1.0543 O.co2     1 ACP        -0.8240
      7 O2B        -5.1815   -6.4216    1.9076 O.co2     1 ACP        -0.8240
      8 C3B        -5.3284   -4.1304    3.3534 C.3       1 ACP        -0.6510
      9 PA         -1.7112   -6.2792    2.8234 P.3       1 ACP         1.7966
     10 O1A        -1.8536   -7.6783    2.2982 O.2       1 ACP        -0.8436
     11 O2A        -0.8909   -6.1678    4.2134 O.3       1 ACP        -0.8190
     12 O3A        -3.1111   -5.5365    3.1461 O.3       1 ACP        -0.7947
     13 O5'        -0.9731   -5.2421    1.8246 O.3       1 ACP        -0.5846
     14 C5'        -0.7840   -3.8935    2.2172 C.3       1 ACP         0.2005
     15 C4'        -0.0724   -3.1466    1.1027 C.3       1 ACP         0.0711
     16 O4'        -0.8674   -3.1929   -0.0945 O.3       1 ACP        -0.4064
     17 C3'         0.1338   -1.6715    1.4027 C.3       1 ACP         0.0975
     18 O3'         1.2893   -1.4445    2.1808 O.3       1 ACP        -0.5957
     19 C2'         0.2158   -1.0724    0.0128 C.3       1 ACP         0.1195
     20 O2'         1.5141   -1.2448   -0.5513 O.3       1 ACP        -0.5845
     21 C1'        -0.7897   -1.9176   -0.7583 C.3       1 ACP         0.4064
     22 N9         -2.1040   -1.3333   -0.7704 N.pl3     1 ACP        -0.5630
     23 C8         -3.0822   -1.4850    0.1102 C.ar      1 ACP         0.2808
     24 N7         -4.1844   -0.7999   -0.1888 N.pl3     1 ACP        -0.5040
     25 C5         -3.8875   -0.1651   -1.3445 C.ar      1 ACP        -0.2807
     26 C6         -4.5941    0.6799   -2.1486 C.ar      1 ACP         0.7712
     27 N6         -5.9138    1.0274   -1.7939 N.pl3     1 ACP        -0.9461
     28 N1         -4.0421    1.1824   -3.2748 N.ar      1 ACP        -0.7457
     29 C2         -2.7637    0.7937   -3.5405 C.ar      1 ACP         0.7201
     30 N3         -1.9788   -0.0343   -2.8140 N.ar      1 ACP        -0.6849
     31 C4         -2.5915   -0.4902   -1.7174 C.ar      1 ACP         0.6369
     32 HOG2       -2.7326   -3.8492    4.7822 H         1 ACP         0.4781
     33 HOG3       -5.5946   -1.5427    5.8692 H         1 ACP         0.4781
     34 H3B1       -5.7040   -4.8141    4.1231 H         1 ACP         0.1236
     35 H3B2       -6.1999   -3.7677    2.7965 H         1 ACP         0.1236
     36 HOA2        0.0375   -6.4828    4.2426 H         1 ACP         0.4716
     37 H5'1       -1.7611   -3.4417    2.4168 H         1 ACP         0.0529
     38 H5'2       -0.1868   -3.8712    3.1345 H         1 ACP         0.0529
     39 H4'         0.8886   -3.6448    0.8780 H         1 ACP         0.1213
     40 H3'        -0.7374   -1.2358    1.9870 H         1 ACP         0.0524
     41 HO3'        1.3408   -0.4870    2.3219 H         1 ACP         0.4707
     42 H2'        -0.0384   -0.0310    0.0096 H         1 ACP         0.0774
     43 HO2'        2.1463   -0.7958    0.0370 H         1 ACP         0.4561
     44 H1'        -0.4769   -2.1002   -1.8093 H         1 ACP         0.1559
     45 H8         -3.0031   -2.1011    0.9891 H         1 ACP         0.2754
     46 HN61       -6.3271    0.6117   -0.9836 H         1 ACP         0.4584
     47 HN62       -6.4471    1.6092   -2.4083 H         1 ACP         0.4584
     48 H2         -2.3243    1.1986   -4.4449 H         1 ACP         0.0892
     49 H49        -5.0436   -0.7722    0.3425 H         1 ACP         0.5039
@<TRIPOS>BOND
     1    1    2 2
     2    1    3 1
     3    1    4 1
     4    1    8 1
     5    3   32 1
     6    4   33 1
     7    5    6 2
     8    5    7 1
     9    5    8 1
    10    5   12 1
    11    8   34 1
    12    8   35 1
    13    9   10 2
    14    9   11 1
    15    9   12 1
    16    9   13 1
    17   11   36 1
    18   13   14 1
    19   14   15 1
    20   14   37 1
    21   14   38 1
    22   15   16 1
    23   15   17 1
    24   15   39 1
    25   16   21 1
    26   17   18 1
    27   17   19 1
    28   17   40 1
    29   18   41 1
    30   19   20 1
    31   19   21 1
    32   19   42 1
    33   20   43 1
    34   21   22 1
    35   21   44 1
    36   22   23 ar
    37   22   31 ar
    38   23   24 ar
    39   23   45 1
    40   24   25 ar
    41   24   49 1
    42   25   26 ar
    43   25   31 ar
    44   26   27 1
    45   26   28 ar
    46   27   46 1
    47   27   47 1
    48   28   29 ar
    49   29   30 ar
    50   29   48 1
    51   30   31 ar
@<TRIPOS>SUBSTRUCTURE
     1 ACP         1 GROUP 0 A     ****
@<TRIPOS>MOLECULE
[[5-(6-amino-7,8-dihydropurin-8-ylium-9-yl)-3,4-dihydroxy-tetrahydrofuran-2-yl]methoxy-hydroxy-phosphoryl]oxy-(phosphonomethyl)phosphinate
   49    51     1     0     0
SMALL
USER_CHARGES

@<TRIPOS>ATOM
      1 PG          0.8446   -4.8370    6.2671 P.3       1 ACP         1.6362
      2 O1G         0.2313   -5.9551    5.4790 O.2       1 ACP        -0.8691
      3 O2G         1.6407   -5.2812    7.6009 O.3       1 ACP        -0.8016
      4 O3G         1.9175   -3.9321    5.4671 O.3       1 ACP        -0.8016
      5 PB         -1.4275   -2.6340    5.7500 P.3       1 ACP         1.4874
      6 O1B        -0.5201   -1.8381    4.8406 O.co2     1 ACP        -0.8240
      7 O2B        -2.4864   -1.9786    6.6058 O.co2     1 ACP        -0.8240
      8 C3B        -0.3432   -3.6198    6.8787 C.3       1 ACP        -0.6510
      9 PA         -3.0212   -3.8715    3.6003 P.3       1 ACP         1.7966
     10 O1A        -4.3226   -3.1408    3.7625 O.2       1 ACP        -0.8436
     11 O2A        -3.1769   -5.4412    3.2407 O.3       1 ACP        -0.8190
     12 O3A        -2.0826   -3.8733    4.9174 O.3       1 ACP        -0.7947
     13 O5'        -2.0397   -3.2817    2.4572 O.3       1 ACP        -0.5846
     14 C5'        -0.7840   -3.8935    2.2172 C.3       1 ACP         0.2005
     15 C4'        -0.0724   -3.1466    1.1027 C.3       1 ACP         0.0711
     16 O4'        -0.8674   -3.1929   -0.0945 O.3       1 ACP        -0.4064
     17 C3'         0.1338   -1.6715    1.4027 C.3       1 ACP         0.0975
     18 O3'         1.2893   -1.4445    2.1808 O.3       1 ACP        -0.5957
     19 C2'         0.2158   -1.0724    0.0128 C.3       1 ACP         0.1195
     20 O2'         1.5141   -1.2448   -0.5513 O.3       1 ACP        -0.5845
     21 C1'        -0.7897   -1.9176   -0.7583 C.3       1 ACP         0.4064
     22 N9         -2.1040   -1.3333   -0.7704 N.pl3     1 ACP        -0.5630
     23 C8         -3.2304   -1.8262   -0.2767 C.ar      1 ACP         0.2808
     24 N7         -4.2847   -1.0309   -0.4481 N.pl3     1 ACP        -0.5040
     25 C5         -3.7951    0.0479   -1.0985 C.ar      1 ACP        -0.2807
     26 C6         -4.3691    1.1983   -1.5536 C.ar      1 ACP         0.7712
     27 N6         -5.7501    1.4047   -1.3573 N.pl3     1 ACP        -0.9461
     28 N1         -3.6289    2.1345   -2.1869 N.ar      1 ACP        -0.7457
     29 C2         -2.3041    1.8525   -2.3333 C.ar      1 ACP         0.7201
     30 N3         -1.6387    0.7492   -1.9218 N.ar      1 ACP        -0.6849
     31 C4         -2.4348   -0.1293   -1.3053 C.ar      1 ACP         0.6369
     32 HOG2        2.0621   -4.5904    8.1553 H         1 ACP         0.4781
     33 HOG3        2.7203   -4.3598    5.1000 H         1 ACP         0.4781
     34 H3B1       -1.0192   -4.1461    7.5620 H         1 ACP         0.1236
     35 H3B2        0.2115   -2.8894    7.4787 H         1 ACP         0.1236
     36 HOA2       -3.6470   -5.6948    2.4181 H         1 ACP         0.4716
     37 H5'1       -0.1919   -3.8613    3.1376 H         1 ACP         0.0529
     38 H5'2       -0.9466   -4.9385    1.9341 H         1 ACP         0.0529
     39 H4'         0.8886   -3.6448    0.8780 H         1 ACP         0.1213
     40 H3'        -0.7374   -1.2358    1.9870 H         1 ACP         0.0524
     41 HO3'        1.3408   -0.4870    2.3219 H         1 ACP         0.4707
     42 H2'        -0.0384   -0.0310    0.0096 H         1 ACP         0.0774
     43 HO2'        2.1463   -0.7958    0.0370 H         1 ACP         0.4561
     44 H1'        -0.4769   -2.1002   -1.8093 H         1 ACP         0.1559
     45 H8         -3.2974   -2.7789    0.2194 H         1 ACP         0.2754
     46 HN61       -6.2956    0.6838   -0.9296 H         1 ACP         0.4584
     47 HN62       -6.1788    2.2266   -1.7327 H         1 ACP         0.4584
     48 H2         -1.7135    2.6057   -2.8421 H         1 ACP         0.0892
     49 H49        -5.2337   -1.2102   -0.1507 H         1 ACP         0.5039
@<TRIPOS>BOND
     1    1    2 2
     2    1    3 1
     3    1    4 1
     4    1    8 1
     5    3   32 1
     6    4   33 1
     7    5    6 2
     8    5    7 1
     9    5    8 1
    10    5   12 1
    11    8   34 1
    12    8   35 1
    13    9   10 2
    14    9   11 1
    15    9   12 1
    16    9   13 1
    17   11   36 1
    18   13   14 1
    19   14   15 1
    20   14   37 1
    21   14   38 1
    22   15   16 1
    23   15   17 1
    24   15   39 1
    25   16   21 1
    26   17   18 1
    27   17   19 1
    28   17   40 1
    29   18   41 1
    30   19   20 1
    31   19   21 1
    32   19   42 1
    33   20   43 1
    34   21   22 1
    35   21   44 1
    36   22   23 ar
    37   22   31 ar
    38   23   24 ar
    39   23   45 1
    40   24   25 ar
    41   24   49 1
    42   25   26 ar
    43   25   31 ar
    44   26   27 1
    45   26   28 ar
    46   27   46 1
    47   27   47 1
    48   28   29 ar
    49   29   30 ar
    50   29   48 1
    51   30   31 ar
@<TRIPOS>SUBSTRUCTURE
     1 ACP         1 GROUP 0 A     ****
@<TRIPOS>MOLECULE
[[5-(6-amino-7,8-dihydropurin-8-ylium-9-yl)-3,4-dihydroxy-tetrahydrofuran-2-yl]methoxy-hydroxy-phosphoryl]oxy-(phosphonomethyl)phosphinate
   49    51     1     0     0
SMALL
USER_CHARGES

@<TRIPOS>ATOM
      1 PG          6.9807    1.3216   -3.8227 P.3       1 ACP         1.6362
      2 O1G         6.4476    0.8125   -2.5172 O.2       1 ACP        -0.8691
      3 O2G         7.7079    2.7630   -3.7624 O.3       1 ACP        -0.8016
      4 O3G         8.0733    0.3738   -4.5421 O.3       1 ACP        -0.8016
      5 PB          4.6820    0.1486   -5.7261 P.3       1 ACP         1.4874
      6 O1B         5.6191   -0.8856   -6.3056 O.co2     1 ACP        -0.8240
      7 O2B         3.5556    0.7556   -6.5299 O.co2     1 ACP        -0.8240
      8 C3B         5.7244    1.5438   -5.1028 C.3       1 ACP        -0.6510
      9 PA          3.2553   -1.6951   -3.9211 P.3       1 ACP         1.7966
     10 O1A         3.9311   -2.9927   -4.2574 O.2       1 ACP        -0.8436
     11 O2A         1.8463   -1.4592   -4.6804 O.3       1 ACP        -0.8190
     12 O3A         4.1132   -0.3748   -4.2905 O.3       1 ACP        -0.7947
     13 O5'         2.9195   -1.4814   -2.3528 O.3       1 ACP        -0.5846
     14 C5'         2.2816   -0.2918   -1.9206 C.3       1 ACP         0.2005
     15 C4'         2.7248    0.0226   -0.4980 C.3       1 ACP         0.0711
     16 O4'         2.4697    1.4219   -0.2462 O.3       1 ACP        -0.4064
     17 C3'         1.9404   -0.7419    0.5596 C.3       1 ACP         0.0975
     18 O3'         2.7418   -0.8086    1.7389 O.3       1 ACP        -0.5957
     19 C2'         0.7477    0.1630    0.7858 C.3       1 ACP         0.1195
     20 O2'         0.1373   -0.0577    2.0407 O.3       1 ACP        -0.5845
     21 C1'         1.3733    1.5427    0.6747 C.3       1 ACP         0.4064
     22 N9          0.4520    2.5240    0.1767 N.pl3     1 ACP        -0.5630
     23 C8         -0.2172    2.5216   -0.9668 C.ar      1 ACP         0.2808
     24 N7         -1.0011    3.5855   -1.1321 N.pl3     1 ACP        -0.5040
     25 C5         -0.8184    4.3200   -0.0123 C.ar      1 ACP        -0.2807
     26 C6         -1.3349    5.5079    0.4144 C.ar      1 ACP         0.7712
     27 N6         -2.2567    6.1930   -0.4036 N.pl3     1 ACP        -0.9461
     28 N1         -0.9716    6.0291    1.6069 N.ar      1 ACP        -0.7457
     29 C2         -0.0765    5.3009    2.3312 C.ar      1 ACP         0.7201
     30 N3          0.4933    4.1191    2.0023 N.ar      1 ACP        -0.6849
     31 C4          0.0865    3.6675    0.8123 C.ar      1 ACP         0.6369
     32 HOG2        8.0757    3.1448   -4.5877 H         1 ACP         0.4781
     33 HOG3        8.9085    0.1683   -4.0704 H         1 ACP         0.4781
     34 H3B1        5.0240    2.3030   -4.7369 H         1 ACP         0.1236
     35 H3B2        6.2212    1.9664   -5.9835 H         1 ACP         0.1236
     36 HOA2        1.8340   -1.4374   -5.6610 H         1 ACP         0.4716
     37 H5'1        2.5577    0.5244   -2.5962 H         1 ACP         0.0529
     38 H5'2        1.1970   -0.4361   -1.9603 H         1 ACP         0.0529
     39 H4'         3.8049   -0.1388   -0.4009 H         1 ACP         0.1213
     40 H3'         1.6783   -1.7629    0.2715 H         1 ACP         0.0524
     41 HO3'        3.5554   -1.2733    1.4914 H         1 ACP         0.4707
     42 H2'        -0.0011    0.0027    0.0003 H         1 ACP         0.0774
     43 HO2'       -0.1563   -0.9855    2.0596 H         1 ACP         0.4561
     44 H1'         1.7826    1.9024    1.6451 H         1 ACP         0.1559
     45 H8         -0.1423    1.7373   -1.6999 H         1 ACP         0.2754
     46 HN61       -2.4811    5.8206   -1.3042 H         1 ACP         0.4584
     47 HN62       -2.5986    7.0863   -0.1113 H         1 ACP         0.4584
     48 H2          0.2128    5.7222    3.2871 H         1 ACP         0.0892
     49 H49        -1.5947    3.7835   -1.9255 H         1 ACP         0.5039
@<TRIPOS>BOND
     1    1    2 2
     2    1    3 1
     3    1    4 1
     4    1    8 1
     5    3   32 1
     6    4   33 1
     7    5    6 2
     8    5    7 1
     9    5    8 1
    10    5   12 1
    11    8   34 1
    12    8   35 1
    13    9   10 2
    14    9   11 1
    15    9   12 1
    16    9   13 1
    17   11   36 1
    18   13   14 1
    19   14   15 1
    20   14   37 1
    21   14   38 1
    22   15   16 1
    23   15   17 1
    24   15   39 1
    25   16   21 1
    26   17   18 1
    27   17   19 1
    28   17   40 1
    29   18   41 1
    30   19   20 1
    31   19   21 1
    32   19   42 1
    33   20   43 1
    34   21   22 1
    35   21   44 1
    36   22   23 ar
    37   22   31 ar
    38   23   24 ar
    39   23   45 1
    40   24   25 ar
    41   24   49 1
    42   25   26 ar
    43   25   31 ar
    44   26   27 1
    45   26   28 ar
    46   27   46 1
    47   27   47 1
    48   28   29 ar
    49   29   30 ar
    50   29   48 1
    51   30   31 ar
@<TRIPOS>SUBSTRUCTURE
     1 ACP         1 GROUP 0 A     ****
@<TRIPOS>MOLECULE
[[5-(6-amino-7,8-dihydropurin-8-ylium-9-yl)-3,4-dihydroxy-tetrahydrofuran-2-yl]methoxy-hydroxy-phosphoryl]oxy-(phosphonomethyl)phosphinate
   49    51     1     0     0
SMALL
USER_CHARGES

@<TRIPOS>ATOM
      1 PG         -1.4783   -0.7565   -5.0536 P.3       1 ACP         1.6362
      2 O1G        -2.7446    0.0164   -5.2694 O.2       1 ACP        -0.8691
      3 O2G        -0.7147   -0.4654   -3.6600 O.3       1 ACP        -0.8016
      4 O3G        -1.6356   -2.3642   -5.0729 O.3       1 ACP        -0.8016
      5 PB          1.4486   -1.2882   -6.2508 P.3       1 ACP         1.4874
      6 O1B         2.2353   -0.7889   -7.4406 O.co2     1 ACP        -0.8240
      7 O2B         1.2008   -2.7590   -6.0085 O.co2     1 ACP        -0.8240
      8 C3B        -0.2020   -0.4546   -6.2971 C.3       1 ACP        -0.6510
      9 PA          3.4946   -0.6448   -4.2278 P.3       1 ACP         1.7966
     10 O1A         4.5894   -0.1038   -5.1010 O.2       1 ACP        -0.8436
     11 O2A         3.6755   -2.1987   -3.8153 O.3       1 ACP        -0.8190
     12 O3A         2.0199   -0.5952   -4.8900 O.3       1 ACP        -0.7947
     13 O5'         3.2874    0.1331   -2.8242 O.3       1 ACP        -0.5846
     14 C5'         2.2816   -0.2918   -1.9206 C.3       1 ACP         0.2005
     15 C4'         2.7248    0.0226   -0.4980 C.3       1 ACP         0.0711
     16 O4'         2.4697    1.4219   -0.2462 O.3       1 ACP        -0.4064
     17 C3'         1.9404   -0.7419    0.5596 C.3       1 ACP         0.0975
     18 O3'         2.7418   -0.8086    1.7389 O.3       1 ACP        -0.5957
     19 C2'         0.7477    0.1630    0.7858 C.3       1 ACP         0.1195
     20 O2'         0.1373   -0.0577    2.0407 O.3       1 ACP        -0.5845
     21 C1'         1.3733    1.5427    0.6747 C.3       1 ACP         0.4064
     22 N9          0.4520    2.5240    0.1767 N.pl3     1 ACP        -0.5630
     23 C8          0.5305    3.2394   -0.9358 C.ar      1 ACP         0.2808
     24 N7         -0.4966    4.0680   -1.1145 N.pl3     1 ACP        -0.5040
     25 C5         -1.2879    3.8664   -0.0375 C.ar      1 ACP        -0.2807
     26 C6         -2.4754    4.4084    0.3577 C.ar      1 ACP         0.7712
     27 N6         -3.0892    5.3882   -0.4495 N.pl3     1 ACP        -0.9461
     28 N1         -3.0632    4.0158    1.5092 N.ar      1 ACP        -0.7457
     29 C2         -2.4008    3.0654    2.2262 C.ar      1 ACP         0.7201
     30 N3         -1.2259    2.4663    1.9260 N.ar      1 ACP        -0.6849
     31 C4         -0.7062    2.9047    0.7757 C.ar      1 ACP         0.6369
     32 HOG2        0.1195   -0.9436   -3.4661 H         1 ACP         0.4781
     33 HOG3       -2.2258   -2.7920   -4.4165 H         1 ACP         0.4781
     34 H3B1       -0.6377   -0.7032   -7.2714 H         1 ACP         0.1236
     35 H3B2        0.0035    0.6219   -6.3051 H         1 ACP         0.1236
     36 HOA2        3.7129   -2.8761   -4.5238 H         1 ACP         0.4716
     37 H5'1        1.3494    0.2322   -2.1552 H         1 ACP         0.0529
     38 H5'2        2.1260   -1.3686   -2.0435 H         1 ACP         0.0529
     39 H4'         3.8049   -0.1388   -0.4009 H         1 ACP         0.1213
     40 H3'         1.6783   -1.7629    0.2715 H         1 ACP         0.0524
     41 HO3'        3.5554   -1.2733    1.4914 H         1 ACP         0.4707
     42 H2'        -0.0011    0.0027    0.0003 H         1 ACP         0.0774
     43 HO2'       -0.1563   -0.9855    2.0596 H         1 ACP         0.4561
     44 H1'         1.7826    1.9024    1.6451 H         1 ACP         0.1559
     45 H8          1.3437    3.1645   -1.6367 H         1 ACP         0.2754
     46 HN61       -2.6210    5.7042   -1.2748 H         1 ACP         0.4584
     47 HN62       -3.9356    5.8187   -0.1356 H         1 ACP         0.4584
     48 H2         -2.8752    2.7532    3.1495 H         1 ACP         0.0892
     49 H49        -0.6372    4.7004   -1.8900 H         1 ACP         0.5039
@<TRIPOS>BOND
     1    1    2 2
     2    1    3 1
     3    1    4 1
     4    1    8 1
     5    3   32 1
     6    4   33 1
     7    5    6 2
     8    5    7 1
     9    5    8 1
    10    5   12 1
    11    8   34 1
    12    8   35 1
    13    9   10 2
    14    9   11 1
    15    9   12 1
    16    9   13 1
    17   11   36 1
    18   13   14 1
    19   14   15 1
    20   14   37 1
    21   14   38 1
    22   15   16 1
    23   15   17 1
    24   15   39 1
    25   16   21 1
    26   17   18 1
    27   17   19 1
    28   17   40 1
    29   18   41 1
    30   19   20 1
    31   19   21 1
    32   19   42 1
    33   20   43 1
    34   21   22 1
    35   21   44 1
    36   22   23 ar
    37   22   31 ar
    38   23   24 ar
    39   23   45 1
    40   24   25 ar
    41   24   49 1
    42   25   26 ar
    43   25   31 ar
    44   26   27 1
    45   26   28 ar
    46   27   46 1
    47   27   47 1
    48   28   29 ar
    49   29   30 ar
    50   29   48 1
    51   30   31 ar
@<TRIPOS>SUBSTRUCTURE
     1 ACP         1 GROUP 0 A     ****
@<TRIPOS>MOLECULE
[[5-(6-amino-7,8-dihydropurin-8-ylium-9-yl)-3,4-dihydroxy-tetrahydrofuran-2-yl]methoxy-hydroxy-phosphoryl]oxy-(phosphonomethyl)phosphinate
   49    51     1     0     0
SMALL
USER_CHARGES

@<TRIPOS>ATOM
      1 PG         -1.2914    1.4515   -6.3995 P.3       1 ACP         1.6362
      2 O1G        -2.7872    1.3512   -6.3974 O.2       1 ACP        -0.8691
      3 O2G        -0.5023    0.0724   -6.6919 O.3       1 ACP        -0.8016
      4 O3G        -0.6674    2.4826   -7.4752 O.3       1 ACP        -0.8016
      5 PB          1.2398    2.2168   -4.5856 P.3       1 ACP         1.4874
      6 O1B         1.4460    2.6955   -3.1672 O.co2     1 ACP        -0.8240
      7 O2B         1.7722    2.9771   -5.7780 O.co2     1 ACP        -0.8240
      8 C3B        -0.5816    2.0121   -4.8348 C.3       1 ACP        -0.6510
      9 PA          3.0853   -0.0761   -4.4159 P.3       1 ACP         1.7966
     10 O1A         4.2171    0.4133   -5.2721 O.2       1 ACP        -0.8436
     11 O2A         2.7514   -1.6500   -4.5859 O.3       1 ACP        -0.8190
     12 O3A         1.6668    0.6474   -4.6987 O.3       1 ACP        -0.7947
     13 O5'         3.2874    0.1331   -2.8242 O.3       1 ACP        -0.5846
     14 C5'         2.2816   -0.2918   -1.9206 C.3       1 ACP         0.2005
     15 C4'         2.7248    0.0226   -0.4980 C.3       1 ACP         0.0711
     16 O4'         2.4697    1.4219   -0.2462 O.3       1 ACP        -0.4064
     17 C3'         1.9404   -0.7419    0.5596 C.3       1 ACP         0.0975
     18 O3'         2.7418   -0.8086    1.7389 O.3       1 ACP        -0.5957
     19 C2'         0.7477    0.1630    0.7858 C.3       1 ACP         0.1195
     20 O2'         0.1373   -0.0577    2.0407 O.3       1 ACP        -0.5845
     21 C1'         1.3733    1.5427    0.6747 C.3       1 ACP         0.4064
     22 N9          0.4520    2.5240    0.1767 N.pl3     1 ACP        -0.5630
     23 C8         -0.8252    2.3702   -0.1405 C.ar      1 ACP         0.2808
     24 N7         -1.4086    3.4861   -0.5739 N.pl3     1 ACP        -0.5040
     25 C5         -0.4324    4.4197   -0.5299 C.ar      1 ACP        -0.2807
     26 C6         -0.4006    5.7465   -0.8438 C.ar      1 ACP         0.7712
     27 N6         -1.5714    6.3708   -1.3211 N.pl3     1 ACP        -0.9461
     28 N1          0.7371    6.4615   -0.7020 N.ar      1 ACP        -0.7457
     29 C2          1.8196    5.7785   -0.2355 C.ar      1 ACP         0.7201
     30 N3          1.8948    4.4713    0.1036 N.ar      1 ACP        -0.6849
     31 C4          0.7337    3.8311   -0.0629 C.ar      1 ACP         0.6369
     32 HOG2        0.4785    0.0796   -6.7053 H         1 ACP         0.4781
     33 HOG3       -0.8430    2.3382   -8.4295 H         1 ACP         0.4781
     34 H3B1       -1.0278    2.9878   -4.6112 H         1 ACP         0.1236
     35 H3B2       -0.9177    1.3212   -4.0532 H         1 ACP         0.1236
     36 HOA2        2.4877   -1.9861   -5.4689 H         1 ACP         0.4716
     37 H5'1        1.3494    0.2322   -2.1552 H         1 ACP         0.0529
     38 H5'2        2.1260   -1.3686   -2.0435 H         1 ACP         0.0529
     39 H4'         3.8049   -0.1388   -0.4009 H         1 ACP         0.1213
     40 H3'         1.6783   -1.7629    0.2715 H         1 ACP         0.0524
     41 HO3'        3.5554   -1.2733    1.4914 H         1 ACP         0.4707
     42 H2'        -0.0011    0.0027    0.0003 H         1 ACP         0.0774
     43 HO2'       -0.1563   -0.9855    2.0596 H         1 ACP         0.4561
     44 H1'         1.7826    1.9024    1.6451 H         1 ACP         0.1559
     45 H8         -1.3516    1.4351   -0.0582 H         1 ACP         0.2754
     46 HN61       -2.3936    5.8204   -1.4664 H         1 ACP         0.4584
     47 HN62       -1.5348    7.3319   -1.5955 H         1 ACP         0.4584
     48 H2          2.7305    6.3553   -0.1232 H         1 ACP         0.0892
     49 H49        -2.3700    3.5931   -0.8665 H         1 ACP         0.5039
@<TRIPOS>BOND
     1    1    2 2
     2    1    3 1
     3    1    4 1
     4    1    8 1
     5    3   32 1
     6    4   33 1
     7    5    6 2
     8    5    7 1
     9    5    8 1
    10    5   12 1
    11    8   34 1
    12    8   35 1
    13    9   10 2
    14    9   11 1
    15    9   12 1
    16    9   13 1
    17   11   36 1
    18   13   14 1
    19   14   15 1
    20   14   37 1
    21   14   38 1
    22   15   16 1
    23   15   17 1
    24   15   39 1
    25   16   21 1
    26   17   18 1
    27   17   19 1
    28   17   40 1
    29   18   41 1
    30   19   20 1
    31   19   21 1
    32   19   42 1
    33   20   43 1
    34   21   22 1
    35   21   44 1
    36   22   23 ar
    37   22   31 ar
    38   23   24 ar
    39   23   45 1
    40   24   25 ar
    41   24   49 1
    42   25   26 ar
    43   25   31 ar
    44   26   27 1
    45   26   28 ar
    46   27   46 1
    47   27   47 1
    48   28   29 ar
    49   29   30 ar
    50   29   48 1
    51   30   31 ar
@<TRIPOS>SUBSTRUCTURE
     1 ACP         1 GROUP 0 A     ****
@<TRIPOS>MOLECULE
[[5-(6-amino-7,8-dihydropurin-8-ylium-9-yl)-3,4-dihydroxy-tetrahydrofuran-2-yl]methoxy-hydroxy-phosphoryl]oxy-(phosphonomethyl)phosphinate
   49    51     1     0     0
SMALL
USER_CHARGES

@<TRIPOS>ATOM
      1 PG         -1.1290    0.7639   -5.8646 P.3       1 ACP         1.6362
      2 O1G        -0.6938    1.4245   -4.5911 O.2       1 ACP        -0.8691
      3 O2G        -2.7145    0.4828   -5.9957 O.3       1 ACP        -0.8016
      4 O3G        -0.7715    1.5675   -7.2197 O.3       1 ACP        -0.8016
      5 PB          1.4325   -1.1192   -6.2832 P.3       1 ACP         1.4874
      6 O1B         1.9145   -0.2900   -7.4509 O.co2     1 ACP        -0.8240
      7 O2B         1.6841   -2.6065   -6.1927 O.co2     1 ACP        -0.8240
      8 C3B        -0.3943   -0.8630   -6.1469 C.3       1 ACP        -0.6510
      9 PA          3.3384   -0.0297   -4.3151 P.3       1 ACP         1.7966
     10 O1A         4.1258    0.9106   -5.1809 O.2       1 ACP        -0.8436
     11 O2A         4.0360   -1.4716   -4.0883 O.3       1 ACP        -0.8190
     12 O3A         1.8718   -0.4013   -4.8868 O.3       1 ACP        -0.7947
     13 O5'         3.0190    0.5130   -2.8246 O.3       1 ACP        -0.5846
     14 C5'         2.2816   -0.2918   -1.9206 C.3       1 ACP         0.2005
     15 C4'         2.7248    0.0226   -0.4980 C.3       1 ACP         0.0711
     16 O4'         2.4697    1.4219   -0.2462 O.3       1 ACP        -0.4064
     17 C3'         1.9404   -0.7419    0.5596 C.3       1 ACP         0.0975
     18 O3'         2.7418   -0.8086    1.7389 O.3       1 ACP        -0.5957
     19 C2'         0.7477    0.1630    0.7858 C.3       1 ACP         0.1195
     20 O2'         0.1373   -0.0577    2.0407 O.3       1 ACP        -0.5845
     21 C1'         1.3733    1.5427    0.6747 C.3       1 ACP         0.4064
     22 N9          0.4520    2.5240    0.1767 N.pl3     1 ACP        -0.5630
     23 C8         -0.6854    2.9365    0.7168 C.ar      1 ACP         0.2808
     24 N7         -1.3118    3.8692    0.0018 N.pl3     1 ACP        -0.5040
     25 C5         -0.5159    4.0659   -1.0727 C.ar      1 ACP        -0.2807
     26 C6         -0.6068    4.8856   -2.1589 C.ar      1 ACP         0.7712
     27 N6         -1.7186    5.7437   -2.2844 N.pl3     1 ACP        -0.9461
     28 N1          0.3541    4.8807   -3.1087 N.ar      1 ACP        -0.7457
     29 C2          1.3913    4.0207   -2.9071 C.ar      1 ACP         0.7201
     30 N3          1.5770    3.1707   -1.8715 N.ar      1 ACP        -0.6849
     31 C4          0.5883    3.2318   -0.9747 C.ar      1 ACP         0.6369
     32 HOG2       -3.3362    1.2408   -5.9616 H         1 ACP         0.4781
     33 HOG3       -1.0323    1.1826   -8.0835 H         1 ACP         0.4781
     34 H3B1       -0.7295   -1.5127   -5.3306 H         1 ACP         0.1236
     35 H3B2       -0.8253   -1.2643   -7.0712 H         1 ACP         0.1236
     36 HOA2        4.9197   -1.5094   -3.6642 H         1 ACP         0.4716
     37 H5'1        1.2149   -0.0786   -2.0446 H         1 ACP         0.0529
     38 H5'2        2.4640   -1.3459   -2.1539 H         1 ACP         0.0529
     39 H4'         3.8049   -0.1388   -0.4009 H         1 ACP         0.1213
     40 H3'         1.6783   -1.7629    0.2715 H         1 ACP         0.0524
     41 HO3'        2.2232   -1.2979    2.3953 H         1 ACP         0.4707
     42 H2'        -0.0011    0.0027    0.0003 H         1 ACP         0.0774
     43 HO2'       -0.1563   -0.9855    2.0596 H         1 ACP         0.4561
     44 H1'         1.7826    1.9024    1.6451 H         1 ACP         0.1559
     45 H8         -1.0749    2.5601    1.6468 H         1 ACP         0.2754
     46 HN61       -2.4460    5.7038   -1.5992 H         1 ACP         0.4584
     47 HN62       -1.8079    6.3099   -3.1040 H         1 ACP         0.4584
     48 H2          2.1601    4.0194   -3.6712 H         1 ACP         0.0892
     49 H49        -2.1877    4.3195    0.2279 H         1 ACP         0.5039
@<TRIPOS>BOND
     1    1    2 2
     2    1    3 1
     3    1    4 1
     4    1    8 1
     5    3   32 1
     6    4   33 1
     7    5    6 2
     8    5    7 1
     9    5    8 1
    10    5   12 1
    11    8   34 1
    12    8   35 1
    13    9   10 2
    14    9   11 1
    15    9   12 1
    16    9   13 1
    17   11   36 1
    18   13   14 1
    19   14   15 1
    20   14   37 1
    21   14   38 1
    22   15   16 1
    23   15   17 1
    24   15   39 1
    25   16   21 1
    26   17   18 1
    27   17   19 1
    28   17   40 1
    29   18   41 1
    30   19   20 1
    31   19   21 1
    32   19   42 1
    33   20   43 1
    34   21   22 1
    35   21   44 1
    36   22   23 ar
    37   22   31 ar
    38   23   24 ar
    39   23   45 1
    40   24   25 ar
    41   24   49 1
    42   25   26 ar
    43   25   31 ar
    44   26   27 1
    45   26   28 ar
    46   27   46 1
    47   27   47 1
    48   28   29 ar
    49   29   30 ar
    50   29   48 1
    51   30   31 ar
@<TRIPOS>SUBSTRUCTURE
     1 ACP         1 GROUP 0 A     ****
@<TRIPOS>MOLECULE
[[5-(6-amino-7,8-dihydropurin-8-ylium-9-yl)-3,4-dihydroxy-tetrahydrofuran-2-yl]methoxy-hydroxy-phosphoryl]oxy-(phosphonomethyl)phosphinate
   49    51     1     0     0
SMALL
USER_CHARGES

@<TRIPOS>ATOM
      1 PG         -1.3966   -1.6692   -4.8773 P.3       1 ACP         1.6362
      2 O1G        -1.3625   -3.1673   -4.9239 O.2       1 ACP        -0.8691
      3 O2G        -2.8538   -1.0002   -5.0748 O.3       1 ACP        -0.8016
      4 O3G        -0.8555   -1.0058   -3.5073 O.3       1 ACP        -0.8016
      5 PB          1.4325   -1.1192   -6.2832 P.3       1 ACP         1.4874
      6 O1B         1.9145   -0.2900   -7.4509 O.co2     1 ACP        -0.8240
      7 O2B         1.6841   -2.6065   -6.1927 O.co2     1 ACP        -0.8240
      8 C3B        -0.3943   -0.8630   -6.1469 C.3       1 ACP        -0.6510
      9 PA          3.3384   -0.0297   -4.3151 P.3       1 ACP         1.7966
     10 O1A         4.1258    0.9106   -5.1809 O.2       1 ACP        -0.8436
     11 O2A         4.0360   -1.4716   -4.0883 O.3       1 ACP        -0.8190
     12 O3A         1.8718   -0.4013   -4.8868 O.3       1 ACP        -0.7947
     13 O5'         3.0190    0.5130   -2.8246 O.3       1 ACP        -0.5846
     14 C5'         2.2816   -0.2918   -1.9206 C.3       1 ACP         0.2005
     15 C4'         2.7248    0.0226   -0.4980 C.3       1 ACP         0.0711
     16 O4'         2.4697    1.4219   -0.2462 O.3       1 ACP        -0.4064
     17 C3'         1.9404   -0.7419    0.5596 C.3       1 ACP         0.0975
     18 O3'         2.7418   -0.8086    1.7389 O.3       1 ACP        -0.5957
     19 C2'         0.7477    0.1630    0.7858 C.3       1 ACP         0.1195
     20 O2'         0.1373   -0.0577    2.0407 O.3       1 ACP        -0.5845
     21 C1'         1.3733    1.5427    0.6747 C.3       1 ACP         0.4064
     22 N9          0.4520    2.5240    0.1767 N.pl3     1 ACP        -0.5630
     23 C8         -0.3477    3.3274    0.8626 C.ar      1 ACP         0.2808
     24 N7         -1.0836    4.1323    0.0983 N.pl3     1 ACP        -0.5040
     25 C5         -0.7273    3.8194   -1.1674 C.ar      1 ACP        -0.2807
     26 C6         -1.1208    4.2877   -2.3863 C.ar      1 ACP         0.7712
     27 N6         -2.0932    5.3066   -2.4528 N.pl3     1 ACP        -0.9461
     28 N1         -0.5892    3.7853   -3.5223 N.ar      1 ACP        -0.7457
     29 C2          0.3427    2.8040   -3.3648 C.ar      1 ACP         0.7201
     30 N3          0.8012    2.2709   -2.2093 N.ar      1 ACP        -0.6849
     31 C4          0.2307    2.8167   -1.1312 C.ar      1 ACP         0.6369
     32 HOG2       -3.5675   -1.2189   -4.4383 H         1 ACP         0.4781
     33 HOG3       -0.8544   -0.0287   -3.4204 H         1 ACP         0.4781
     34 H3B1       -0.8123   -1.1525   -7.1177 H         1 ACP         0.1236
     35 H3B2       -0.5409    0.2184   -6.0463 H         1 ACP         0.1236
     36 HOA2        4.9197   -1.5094   -3.6642 H         1 ACP         0.4716
     37 H5'1        1.2149   -0.0786   -2.0446 H         1 ACP         0.0529
     38 H5'2        2.4640   -1.3459   -2.1539 H         1 ACP         0.0529
     39 H4'         3.8049   -0.1388   -0.4009 H         1 ACP         0.1213
     40 H3'         1.6783   -1.7629    0.2715 H         1 ACP         0.0524
     41 HO3'        2.2232   -1.2979    2.3953 H         1 ACP         0.4707
     42 H2'        -0.0011    0.0027    0.0003 H         1 ACP         0.0774
     43 HO2'       -0.6141    0.5574    2.1082 H         1 ACP         0.4561
     44 H1'         1.7826    1.9024    1.6451 H         1 ACP         0.1559
     45 H8         -0.4040    3.3373    1.9373 H         1 ACP         0.2754
     46 HN61       -2.5133    5.6366   -1.6073 H         1 ACP         0.4584
     47 HN62       -2.4153    5.6161   -3.3477 H         1 ACP         0.4584
     48 H2          0.7668    2.4032   -4.2782 H         1 ACP         0.0892
     49 H49        -1.7549    4.8194    0.4122 H         1 ACP         0.5039
@<TRIPOS>BOND
     1    1    2 2
     2    1    3 1
     3    1    4 1
     4    1    8 1
     5    3   32 1
     6    4   33 1
     7    5    6 2
     8    5    7 1
     9    5    8 1
    10    5   12 1
    11    8   34 1
    12    8   35 1
    13    9   10 2
    14    9   11 1
    15    9   12 1
    16    9   13 1
    17   11   36 1
    18   13   14 1
    19   14   15 1
    20   14   37 1
    21   14   38 1
    22   15   16 1
    23   15   17 1
    24   15   39 1
    25   16   21 1
    26   17   18 1
    27   17   19 1
    28   17   40 1
    29   18   41 1
    30   19   20 1
    31   19   21 1
    32   19   42 1
    33   20   43 1
    34   21   22 1
    35   21   44 1
    36   22   23 ar
    37   22   31 ar
    38   23   24 ar
    39   23   45 1
    40   24   25 ar
    41   24   49 1
    42   25   26 ar
    43   25   31 ar
    44   26   27 1
    45   26   28 ar
    46   27   46 1
    47   27   47 1
    48   28   29 ar
    49   29   30 ar
    50   29   48 1
    51   30   31 ar
@<TRIPOS>SUBSTRUCTURE
     1 ACP         1 GROUP 0 A     ****
@<TRIPOS>MOLECULE
[[5-(6-amino-7,8-dihydropurin-8-ylium-9-yl)-3,4-dihydroxy-tetrahydrofuran-2-yl]methoxy-hydroxy-phosphoryl]oxy-(phosphonomethyl)phosphinate
   49    51     1     0     0
SMALL
USER_CHARGES

@<TRIPOS>ATOM
      1 PG         -0.5269   -1.8959   -6.9610 P.3       1 ACP         1.6362
      2 O1G        -1.6355   -2.9014   -7.0470 O.2       1 ACP        -0.8691
      3 O2G         0.9602   -2.5107   -6.8174 O.3       1 ACP        -0.8016
      4 O3G        -0.4033   -0.8910   -8.2198 O.3       1 ACP        -0.8016
      5 PB          0.5959    0.5556   -5.2253 P.3       1 ACP         1.4874
      6 O1B         0.1608    1.2796   -3.9723 O.co2     1 ACP        -0.8240
      7 O2B         0.8323    1.2771   -6.5318 O.co2     1 ACP        -0.8240
      8 C3B        -0.6497   -0.7728   -5.5504 C.3       1 ACP        -0.6510
      9 PA          3.3384   -0.0297   -4.3151 P.3       1 ACP         1.7966
     10 O1A         4.1258    0.9106   -5.1809 O.2       1 ACP        -0.8436
     11 O2A         4.0360   -1.4716   -4.0883 O.3       1 ACP        -0.8190
     12 O3A         1.8718   -0.4013   -4.8868 O.3       1 ACP        -0.7947
     13 O5'         3.0190    0.5130   -2.8246 O.3       1 ACP        -0.5846
     14 C5'         2.2816   -0.2918   -1.9206 C.3       1 ACP         0.2005
     15 C4'         2.7248    0.0226   -0.4980 C.3       1 ACP         0.0711
     16 O4'         2.4697    1.4219   -0.2462 O.3       1 ACP        -0.4064
     17 C3'         1.9404   -0.7419    0.5596 C.3       1 ACP         0.0975
     18 O3'         2.7418   -0.8086    1.7389 O.3       1 ACP        -0.5957
     19 C2'         0.7477    0.1630    0.7858 C.3       1 ACP         0.1195
     20 O2'         0.1373   -0.0577    2.0407 O.3       1 ACP        -0.5845
     21 C1'         1.3733    1.5427    0.6747 C.3       1 ACP         0.4064
     22 N9          0.4520    2.5240    0.1767 N.pl3     1 ACP        -0.5630
     23 C8         -0.8602    2.5861    0.3496 C.ar      1 ACP         0.2808
     24 N7         -1.4308    3.6326   -0.2443 N.pl3     1 ACP        -0.5040
     25 C5         -0.4080    4.2856   -0.8394 C.ar      1 ACP        -0.2807
     26 C6         -0.3432    5.4196   -1.5943 C.ar      1 ACP         0.7712
     27 N6         -1.5276    6.1333   -1.8702 N.pl3     1 ACP        -0.9461
     28 N1          0.8395    5.8603   -2.0764 N.ar      1 ACP        -0.7457
     29 C2          1.9319    5.1095   -1.7617 C.ar      1 ACP         0.7201
     30 N3          1.9773    3.9761   -1.0249 N.ar      1 ACP        -0.6849
     31 C4          0.7724    3.6031   -0.5836 C.ar      1 ACP         0.6369
     32 HOG2        1.7240   -1.8983   -6.7570 H         1 ACP         0.4781
     33 HOG3       -0.2433   -1.2647   -9.1126 H         1 ACP         0.4781
     34 H3B1       -1.6180   -0.2654   -5.6273 H         1 ACP         0.1236
     35 H3B2       -0.6820   -1.3853   -4.6422 H         1 ACP         0.1236
     36 HOA2        4.9197   -1.5094   -3.6642 H         1 ACP         0.4716
     37 H5'1        1.2149   -0.0786   -2.0446 H         1 ACP         0.0529
     38 H5'2        2.4640   -1.3459   -2.1539 H         1 ACP         0.0529
     39 H4'         3.8049   -0.1388   -0.4009 H         1 ACP         0.1213
     40 H3'         1.6783   -1.7629    0.2715 H         1 ACP         0.0524
     41 HO3'        2.2232   -1.2979    2.3953 H         1 ACP         0.4707
     42 H2'        -0.0011    0.0027    0.0003 H         1 ACP         0.0774
     43 HO2'       -0.1563   -0.9855    2.0596 H         1 ACP         0.4561
     44 H1'         1.7826    1.9024    1.6451 H         1 ACP         0.1559
     45 H8         -1.4217    1.8638    0.9164 H         1 ACP         0.2754
     46 HN61       -2.4023    5.7711   -1.5477 H         1 ACP         0.4584
     47 HN62       -1.4856    6.9379   -2.4627 H         1 ACP         0.4584
     48 H2          2.8789    5.4660   -2.1503 H         1 ACP         0.0892
     49 H49        -2.4129    3.8706   -0.2402 H         1 ACP         0.5039
@<TRIPOS>BOND
     1    1    2 2
     2    1    3 1
     3    1    4 1
     4    1    8 1
     5    3   32 1
     6    4   33 1
     7    5    6 2
     8    5    7 1
     9    5    8 1
    10    5   12 1
    11    8   34 1
    12    8   35 1
    13    9   10 2
    14    9   11 1
    15    9   12 1
    16    9   13 1
    17   11   36 1
    18   13   14 1
    19   14   15 1
    20   14   37 1
    21   14   38 1
    22   15   16 1
    23   15   17 1
    24   15   39 1
    25   16   21 1
    26   17   18 1
    27   17   19 1
    28   17   40 1
    29   18   41 1
    30   19   20 1
    31   19   21 1
    32   19   42 1
    33   20   43 1
    34   21   22 1
    35   21   44 1
    36   22   23 ar
    37   22   31 ar
    38   23   24 ar
    39   23   45 1
    40   24   25 ar
    41   24   49 1
    42   25   26 ar
    43   25   31 ar
    44   26   27 1
    45   26   28 ar
    46   27   46 1
    47   27   47 1
    48   28   29 ar
    49   29   30 ar
    50   29   48 1
    51   30   31 ar
@<TRIPOS>SUBSTRUCTURE
     1 ACP         1 GROUP 0 A     ****
@<TRIPOS>MOLECULE
[[5-(6-amino-7,8-dihydropurin-8-ylium-9-yl)-3,4-dihydroxy-tetrahydrofuran-2-yl]methoxy-hydroxy-phosphoryl]oxy-(phosphonomethyl)phosphinate
   49    51     1     0     0
SMALL
USER_CHARGES

@<TRIPOS>ATOM
      1 PG          1.3145    1.5196   -5.8865 P.3       1 ACP         1.6362
      2 O1G         2.2281    2.3885   -5.0754 O.2       1 ACP        -0.8691
      3 O2G         0.0521    0.9028   -5.0891 O.3       1 ACP        -0.8016
      4 O3G         0.6425    2.2302   -7.1722 O.3       1 ACP        -0.8016
      5 PB          2.9157   -1.2385   -5.5514 P.3       1 ACP         1.4874
      6 O1B         4.0158   -0.5631   -4.7659 O.co2     1 ACP        -0.8240
      7 O2B         3.1771   -2.4304   -6.4428 O.co2     1 ACP        -0.8240
      8 C3B         2.1115    0.0601   -6.5946 C.3       1 ACP        -0.6510
      9 PA          1.5750   -2.4621   -3.2281 P.3       1 ACP         1.7966
     10 O1A         1.9285   -3.9069   -3.4315 O.2       1 ACP        -0.8436
     11 O2A         0.0702   -2.2121   -2.6893 O.3       1 ACP        -0.8190
     12 O3A         1.6570   -1.5553   -4.5648 O.3       1 ACP        -0.7947
     13 O5'         2.5233   -1.6622   -2.1894 O.3       1 ACP        -0.5846
     14 C5'         2.2816   -0.2918   -1.9206 C.3       1 ACP         0.2005
     15 C4'         2.7248    0.0226   -0.4980 C.3       1 ACP         0.0711
     16 O4'         2.4697    1.4219   -0.2462 O.3       1 ACP        -0.4064
     17 C3'         1.9404   -0.7419    0.5596 C.3       1 ACP         0.0975
     18 O3'         2.7418   -0.8086    1.7389 O.3       1 ACP        -0.5957
     19 C2'         0.7477    0.1630    0.7858 C.3       1 ACP         0.1195
     20 O2'         0.1373   -0.0577    2.0407 O.3       1 ACP        -0.5845
     21 C1'         1.3733    1.5427    0.6747 C.3       1 ACP         0.4064
     22 N9          0.4520    2.5240    0.1767 N.pl3     1 ACP        -0.5630
     23 C8         -0.8602    2.5861    0.3496 C.ar      1 ACP         0.2808
     24 N7         -1.4308    3.6326   -0.2443 N.pl3     1 ACP        -0.5040
     25 C5         -0.4080    4.2856   -0.8394 C.ar      1 ACP        -0.2807
     26 C6         -0.3432    5.4196   -1.5943 C.ar      1 ACP         0.7712
     27 N6         -1.5276    6.1333   -1.8702 N.pl3     1 ACP        -0.9461
     28 N1          0.8395    5.8603   -2.0764 N.ar      1 ACP        -0.7457
     29 C2          1.9319    5.1095   -1.7617 C.ar      1 ACP         0.7201
     30 N3          1.9773    3.9761   -1.0249 N.ar      1 ACP        -0.6849
     31 C4          0.7724    3.6031   -0.5836 C.ar      1 ACP         0.6369
     32 HOG2        0.2159    0.3230   -4.3150 H         1 ACP         0.4781
     33 HOG3        0.0740    3.0181   -7.0368 H         1 ACP         0.4781
     34 H3B1        1.3551   -0.4600   -7.1932 H         1 ACP         0.1236
     35 H3B2        2.8831    0.4097   -7.2899 H         1 ACP         0.1236
     36 HOA2       -0.1963   -2.6013   -1.8292 H         1 ACP         0.4716
     37 H5'1        2.8428    0.3150   -2.6387 H         1 ACP         0.0529
     38 H5'2        1.2124   -0.0896   -2.0417 H         1 ACP         0.0529
     39 H4'         3.8049   -0.1388   -0.4009 H         1 ACP         0.1213
     40 H3'         1.6783   -1.7629    0.2715 H         1 ACP         0.0524
     41 HO3'        2.2232   -1.2979    2.3953 H         1 ACP         0.4707
     42 H2'        -0.0011    0.0027    0.0003 H         1 ACP         0.0774
     43 HO2'       -0.1563   -0.9855    2.0596 H         1 ACP         0.4561
     44 H1'         1.7826    1.9024    1.6451 H         1 ACP         0.1559
     45 H8         -1.4217    1.8638    0.9164 H         1 ACP         0.2754
     46 HN61       -2.4023    5.7711   -1.5477 H         1 ACP         0.4584
     47 HN62       -1.4856    6.9379   -2.4627 H         1 ACP         0.4584
     48 H2          2.8789    5.4660   -2.1503 H         1 ACP         0.0892
     49 H49        -2.4129    3.8706   -0.2402 H         1 ACP         0.5039
@<TRIPOS>BOND
     1    1    2 2
     2    1    3 1
     3    1    4 1
     4    1    8 1
     5    3   32 1
     6    4   33 1
     7    5    6 2
     8    5    7 1
     9    5    8 1
    10    5   12 1
    11    8   34 1
    12    8   35 1
    13    9   10 2
    14    9   11 1
    15    9   12 1
    16    9   13 1
    17   11   36 1
    18   13   14 1
    19   14   15 1
    20   14   37 1
    21   14   38 1
    22   15   16 1
    23   15   17 1
    24   15   39 1
    25   16   21 1
    26   17   18 1
    27   17   19 1
    28   17   40 1
    29   18   41 1
    30   19   20 1
    31   19   21 1
    32   19   42 1
    33   20   43 1
    34   21   22 1
    35   21   44 1
    36   22   23 ar
    37   22   31 ar
    38   23   24 ar
    39   23   45 1
    40   24   25 ar
    41   24   49 1
    42   25   26 ar
    43   25   31 ar
    44   26   27 1
    45   26   28 ar
    46   27   46 1
    47   27   47 1
    48   28   29 ar
    49   29   30 ar
    50   29   48 1
    51   30   31 ar
@<TRIPOS>SUBSTRUCTURE
     1 ACP         1 GROUP 0 A     ****
@<TRIPOS>MOLECULE
[[5-(6-amino-7,8-dihydropurin-8-ylium-9-yl)-3,4-dihydroxy-tetrahydrofuran-2-yl]methoxy-hydroxy-phosphoryl]oxy-(phosphonomethyl)phosphinate
   49    51     1     0     0
SMALL
USER_CHARGES

@<TRIPOS>ATOM
      1 PG         -1.6694    1.5834   -4.1659 P.3       1 ACP         1.6362
      2 O1G        -1.0424    1.2354   -2.8494 O.2       1 ACP        -0.8691
      3 O2G        -2.6014    0.4358   -4.8174 O.3       1 ACP        -0.8016
      4 O3G        -2.6224    2.8879   -4.1565 O.3       1 ACP        -0.8016
      5 PB          0.7713    0.7225   -6.0591 P.3       1 ACP         1.4874
      6 O1B         1.5728    1.3852   -7.1555 O.co2     1 ACP        -0.8240
      7 O2B         0.0508   -0.5893   -6.2681 O.co2     1 ACP        -0.8240
      8 C3B        -0.4842    1.9511   -5.4798 C.3       1 ACP        -0.6510
      9 PA          3.0853   -0.0761   -4.4159 P.3       1 ACP         1.7966
     10 O1A         4.2171    0.4133   -5.2721 O.2       1 ACP        -0.8436
     11 O2A         2.7514   -1.6500   -4.5859 O.3       1 ACP        -0.8190
     12 O3A         1.6668    0.6474   -4.6987 O.3       1 ACP        -0.7947
     13 O5'         3.2874    0.1331   -2.8242 O.3       1 ACP        -0.5846
     14 C5'         2.2816   -0.2918   -1.9206 C.3       1 ACP         0.2005
     15 C4'         2.7248    0.0226   -0.4980 C.3       1 ACP         0.0711
     16 O4'         2.4697    1.4219   -0.2462 O.3       1 ACP        -0.4064
     17 C3'         1.9404   -0.7419    0.5596 C.3       1 ACP         0.0975
     18 O3'         2.7418   -0.8086    1.7389 O.3       1 ACP        -0.5957
     19 C2'         0.7477    0.1630    0.7858 C.3       1 ACP         0.1195
     20 O2'         0.1373   -0.0577    2.0407 O.3       1 ACP        -0.5845
     21 C1'         1.3733    1.5427    0.6747 C.3       1 ACP         0.4064
     22 N9          0.4520    2.5240    0.1767 N.pl3     1 ACP        -0.5630
     23 C8         -0.8252    2.3702   -0.1405 C.ar      1 ACP         0.2808
     24 N7         -1.4086    3.4861   -0.5739 N.pl3     1 ACP        -0.5040
     25 C5         -0.4324    4.4197   -0.5299 C.ar      1 ACP        -0.2807
     26 C6         -0.4006    5.7465   -0.8438 C.ar      1 ACP         0.7712
     27 N6         -1.5714    6.3708   -1.3211 N.pl3     1 ACP        -0.9461
     28 N1          0.7371    6.4615   -0.7020 N.ar      1 ACP        -0.7457
     29 C2          1.8196    5.7785   -0.2355 C.ar      1 ACP         0.7201
     30 N3          1.8948    4.4713    0.1036 N.ar      1 ACP        -0.6849
     31 C4          0.7337    3.8311   -0.0629 C.ar      1 ACP         0.6369
     32 HOG2       -3.0372    0.6096   -5.6788 H         1 ACP         0.4781
     33 HOG3       -3.4088    2.8978   -3.5702 H         1 ACP         0.4781
     34 H3B1       -1.0643    2.2300   -6.3667 H         1 ACP         0.1236
     35 H3B2        0.0807    2.8398   -5.1760 H         1 ACP         0.1236
     36 HOA2        2.4877   -1.9861   -5.4689 H         1 ACP         0.4716
     37 H5'1        1.3494    0.2322   -2.1552 H         1 ACP         0.0529
     38 H5'2        2.1260   -1.3686   -2.0435 H         1 ACP         0.0529
     39 H4'         3.8049   -0.1388   -0.4009 H         1 ACP         0.1213
     40 H3'         1.6783   -1.7629    0.2715 H         1 ACP         0.0524
     41 HO3'        2.2232   -1.2979    2.3953 H         1 ACP         0.4707
     42 H2'        -0.0011    0.0027    0.0003 H         1 ACP         0.0774
     43 HO2'       -0.6141    0.5574    2.1082 H         1 ACP         0.4561
     44 H1'         1.7826    1.9024    1.6451 H         1 ACP         0.1559
     45 H8         -1.3516    1.4351   -0.0582 H         1 ACP         0.2754
     46 HN61       -2.3936    5.8204   -1.4664 H         1 ACP         0.4584
     47 HN62       -1.5348    7.3319   -1.5955 H         1 ACP         0.4584
     48 H2          2.7305    6.3553   -0.1232 H         1 ACP         0.0892
     49 H49        -2.3700    3.5931   -0.8665 H         1 ACP         0.5039
@<TRIPOS>BOND
     1    1    2 2
     2    1    3 1
     3    1    4 1
     4    1    8 1
     5    3   32 1
     6    4   33 1
     7    5    6 2
     8    5    7 1
     9    5    8 1
    10    5   12 1
    11    8   34 1
    12    8   35 1
    13    9   10 2
    14    9   11 1
    15    9   12 1
    16    9   13 1
    17   11   36 1
    18   13   14 1
    19   14   15 1
    20   14   37 1
    21   14   38 1
    22   15   16 1
    23   15   17 1
    24   15   39 1
    25   16   21 1
    26   17   18 1
    27   17   19 1
    28   17   40 1
    29   18   41 1
    30   19   20 1
    31   19   21 1
    32   19   42 1
    33   20   43 1
    34   21   22 1
    35   21   44 1
    36   22   23 ar
    37   22   31 ar
    38   23   24 ar
    39   23   45 1
    40   24   25 ar
    41   24   49 1
    42   25   26 ar
    43   25   31 ar
    44   26   27 1
    45   26   28 ar
    46   27   46 1
    47   27   47 1
    48   28   29 ar
    49   29   30 ar
    50   29   48 1
    51   30   31 ar
@<TRIPOS>SUBSTRUCTURE
     1 ACP         1 GROUP 0 A     ****
@<TRIPOS>MOLECULE
[[5-(6-amino-7,8-dihydropurin-8-ylium-9-yl)-3,4-dihydroxy-tetrahydrofuran-2-yl]methoxy-hydroxy-phosphoryl]oxy-(phosphonomethyl)phosphinate
   49    51     1     0     0
SMALL
USER_CHARGES

@<TRIPOS>ATOM
      1 PG         -1.3966   -1.6692   -4.8773 P.3       1 ACP         1.6362
      2 O1G        -0.9972   -1.3345   -3.4717 O.2       1 ACP        -0.8691
      3 O2G        -1.3073   -3.2333   -5.2720 O.3       1 ACP        -0.8016
      4 O3G        -2.9047   -1.2590   -5.2859 O.3       1 ACP        -0.8016
      5 PB          1.4325   -1.1192   -6.2832 P.3       1 ACP         1.4874
      6 O1B         1.9145   -0.2900   -7.4509 O.co2     1 ACP        -0.8240
      7 O2B         1.6841   -2.6065   -6.1927 O.co2     1 ACP        -0.8240
      8 C3B        -0.3943   -0.8630   -6.1469 C.3       1 ACP        -0.6510
      9 PA          3.3384   -0.0297   -4.3151 P.3       1 ACP         1.7966
     10 O1A         4.1258    0.9106   -5.1809 O.2       1 ACP        -0.8436
     11 O2A         4.0360   -1.4716   -4.0883 O.3       1 ACP        -0.8190
     12 O3A         1.8718   -0.4013   -4.8868 O.3       1 ACP        -0.7947
     13 O5'         3.0190    0.5130   -2.8246 O.3       1 ACP        -0.5846
     14 C5'         2.2816   -0.2918   -1.9206 C.3       1 ACP         0.2005
     15 C4'         2.7248    0.0226   -0.4980 C.3       1 ACP         0.0711
     16 O4'         2.4697    1.4219   -0.2462 O.3       1 ACP        -0.4064
     17 C3'         1.9404   -0.7419    0.5596 C.3       1 ACP         0.0975
     18 O3'         2.7418   -0.8086    1.7389 O.3       1 ACP        -0.5957
     19 C2'         0.7477    0.1630    0.7858 C.3       1 ACP         0.1195
     20 O2'         0.1373   -0.0577    2.0407 O.3       1 ACP        -0.5845
     21 C1'         1.3733    1.5427    0.6747 C.3       1 ACP         0.4064
     22 N9          0.4520    2.5240    0.1767 N.pl3     1 ACP        -0.5630
     23 C8         -0.8602    2.5861    0.3496 C.ar      1 ACP         0.2808
     24 N7         -1.4308    3.6326   -0.2443 N.pl3     1 ACP        -0.5040
     25 C5         -0.4080    4.2856   -0.8394 C.ar      1 ACP        -0.2807
     26 C6         -0.3432    5.4196   -1.5943 C.ar      1 ACP         0.7712
     27 N6         -1.5276    6.1333   -1.8702 N.pl3     1 ACP        -0.9461
     28 N1          0.8395    5.8603   -2.0764 N.ar      1 ACP        -0.7457
     29 C2          1.9319    5.1095   -1.7617 C.ar      1 ACP         0.7201
     30 N3          1.9773    3.9761   -1.0249 N.ar      1 ACP        -0.6849
     31 C4          0.7724    3.6031   -0.5836 C.ar      1 ACP         0.6369
     32 HOG2       -1.5569   -3.5096   -6.1795 H         1 ACP         0.4781
     33 HOG3       -3.6546   -1.6452   -4.7851 H         1 ACP         0.4781
     34 H3B1       -0.8123   -1.1525   -7.1177 H         1 ACP         0.1236
     35 H3B2       -0.5409    0.2184   -6.0463 H         1 ACP         0.1236
     36 HOA2        4.9197   -1.5094   -3.6642 H         1 ACP         0.4716
     37 H5'1        1.2149   -0.0786   -2.0446 H         1 ACP         0.0529
     38 H5'2        2.4640   -1.3459   -2.1539 H         1 ACP         0.0529
     39 H4'         3.8049   -0.1388   -0.4009 H         1 ACP         0.1213
     40 H3'         1.6783   -1.7629    0.2715 H         1 ACP         0.0524
     41 HO3'        2.2232   -1.2979    2.3953 H         1 ACP         0.4707
     42 H2'        -0.0011    0.0027    0.0003 H         1 ACP         0.0774
     43 HO2'       -0.1563   -0.9855    2.0596 H         1 ACP         0.4561
     44 H1'         1.7826    1.9024    1.6451 H         1 ACP         0.1559
     45 H8         -1.4217    1.8638    0.9164 H         1 ACP         0.2754
     46 HN61       -2.4023    5.7711   -1.5477 H         1 ACP         0.4584
     47 HN62       -1.4856    6.9379   -2.4627 H         1 ACP         0.4584
     48 H2          2.8789    5.4660   -2.1503 H         1 ACP         0.0892
     49 H49        -2.4129    3.8706   -0.2402 H         1 ACP         0.5039
@<TRIPOS>BOND
     1    1    2 2
     2    1    3 1
     3    1    4 1
     4    1    8 1
     5    3   32 1
     6    4   33 1
     7    5    6 2
     8    5    7 1
     9    5    8 1
    10    5   12 1
    11    8   34 1
    12    8   35 1
    13    9   10 2
    14    9   11 1
    15    9   12 1
    16    9   13 1
    17   11   36 1
    18   13   14 1
    19   14   15 1
    20   14   37 1
    21   14   38 1
    22   15   16 1
    23   15   17 1
    24   15   39 1
    25   16   21 1
    26   17   18 1
    27   17   19 1
    28   17   40 1
    29   18   41 1
    30   19   20 1
    31   19   21 1
    32   19   42 1
    33   20   43 1
    34   21   22 1
    35   21   44 1
    36   22   23 ar
    37   22   31 ar
    38   23   24 ar
    39   23   45 1
    40   24   25 ar
    41   24   49 1
    42   25   26 ar
    43   25   31 ar
    44   26   27 1
    45   26   28 ar
    46   27   46 1
    47   27   47 1
    48   28   29 ar
    49   29   30 ar
    50   29   48 1
    51   30   31 ar
@<TRIPOS>SUBSTRUCTURE
     1 ACP         1 GROUP 0 A     ****
@<TRIPOS>MOLECULE
[[5-(6-amino-7,8-dihydropurin-8-ylium-9-yl)-3,4-dihydroxy-tetrahydrofuran-2-yl]methoxy-hydroxy-phosphoryl]oxy-(phosphonomethyl)phosphinate
   49    51     1     0     0
SMALL
USER_CHARGES

@<TRIPOS>ATOM
      1 PG         -0.4311   -2.0100    7.1800 P.3       1 ACP         1.6362
      2 O1G        -0.2027   -1.4857    5.7943 O.2       1 ACP        -0.8691
      3 O2G         0.8312   -1.8994    8.1823 O.3       1 ACP        -0.8016
      4 O3G        -1.6308   -1.3037    7.9995 O.3       1 ACP        -0.8016
      5 PB         -2.3649   -4.4511    6.4156 P.3       1 ACP         1.4874
      6 O1B        -3.5659   -3.7517    7.0088 O.co2     1 ACP        -0.8240
      7 O2B        -2.2273   -5.9559    6.4158 O.co2     1 ACP        -0.8240
      8 C3B        -0.8638   -3.7634    7.2496 C.3       1 ACP        -0.6510
      9 PA         -3.0212   -3.8715    3.6003 P.3       1 ACP         1.7966
     10 O1A        -4.3226   -3.1408    3.7625 O.2       1 ACP        -0.8436
     11 O2A        -3.1769   -5.4412    3.2407 O.3       1 ACP        -0.8190
     12 O3A        -2.0826   -3.8733    4.9174 O.3       1 ACP        -0.7947
     13 O5'        -2.0397   -3.2817    2.4572 O.3       1 ACP        -0.5846
     14 C5'        -0.7840   -3.8935    2.2172 C.3       1 ACP         0.2005
     15 C4'        -0.0724   -3.1466    1.1027 C.3       1 ACP         0.0711
     16 O4'        -0.8674   -3.1929   -0.0945 O.3       1 ACP        -0.4064
     17 C3'         0.1338   -1.6715    1.4027 C.3       1 ACP         0.0975
     18 O3'         1.2893   -1.4445    2.1808 O.3       1 ACP        -0.5957
     19 C2'         0.2158   -1.0724    0.0128 C.3       1 ACP         0.1195
     20 O2'         1.5141   -1.2448   -0.5513 O.3       1 ACP        -0.5845
     21 C1'        -0.7897   -1.9176   -0.7583 C.3       1 ACP         0.4064
     22 N9         -2.1040   -1.3333   -0.7704 N.pl3     1 ACP        -0.5630
     23 C8         -3.2304   -1.8262   -0.2767 C.ar      1 ACP         0.2808
     24 N7         -4.2847   -1.0309   -0.4481 N.pl3     1 ACP        -0.5040
     25 C5         -3.7951    0.0479   -1.0985 C.ar      1 ACP        -0.2807
     26 C6         -4.3691    1.1983   -1.5536 C.ar      1 ACP         0.7712
     27 N6         -5.7501    1.4047   -1.3573 N.pl3     1 ACP        -0.9461
     28 N1         -3.6289    2.1345   -2.1869 N.ar      1 ACP        -0.7457
     29 C2         -2.3041    1.8525   -2.3333 C.ar      1 ACP         0.7201
     30 N3         -1.6387    0.7492   -1.9218 N.ar      1 ACP        -0.6849
     31 C4         -2.4348   -0.1293   -1.3053 C.ar      1 ACP         0.6369
     32 HOG2        1.2042   -1.0143    8.3812 H         1 ACP         0.4781
     33 HOG3       -1.8258   -1.6064    8.9120 H         1 ACP         0.4781
     34 H3B1       -0.0119   -4.3207    6.8439 H         1 ACP         0.1236
     35 H3B2       -0.9519   -4.0403    8.3063 H         1 ACP         0.1236
     36 HOA2       -3.6470   -5.6948    2.4181 H         1 ACP         0.4716
     37 H5'1       -0.1919   -3.8613    3.1376 H         1 ACP         0.0529
     38 H5'2       -0.9466   -4.9385    1.9341 H         1 ACP         0.0529
     39 H4'         0.8886   -3.6448    0.8780 H         1 ACP         0.1213
     40 H3'        -0.7374   -1.2358    1.9870 H         1 ACP         0.0524
     41 HO3'        1.3408   -0.4870    2.3219 H         1 ACP         0.4707
     42 H2'        -0.0384   -0.0310    0.0096 H         1 ACP         0.0774
     43 HO2'        2.1463   -0.7958    0.0370 H         1 ACP         0.4561
     44 H1'        -0.4769   -2.1002   -1.8093 H         1 ACP         0.1559
     45 H8         -3.2974   -2.7789    0.2194 H         1 ACP         0.2754
     46 HN61       -6.2956    0.6838   -0.9296 H         1 ACP         0.4584
     47 HN62       -6.1788    2.2266   -1.7327 H         1 ACP         0.4584
     48 H2         -1.7135    2.6057   -2.8421 H         1 ACP         0.0892
     49 H49        -5.2337   -1.2102   -0.1507 H         1 ACP         0.5039
@<TRIPOS>BOND
     1    1    2 2
     2    1    3 1
     3    1    4 1
     4    1    8 1
     5    3   32 1
     6    4   33 1
     7    5    6 2
     8    5    7 1
     9    5    8 1
    10    5   12 1
    11    8   34 1
    12    8   35 1
    13    9   10 2
    14    9   11 1
    15    9   12 1
    16    9   13 1
    17   11   36 1
    18   13   14 1
    19   14   15 1
    20   14   37 1
    21   14   38 1
    22   15   16 1
    23   15   17 1
    24   15   39 1
    25   16   21 1
    26   17   18 1
    27   17   19 1
    28   17   40 1
    29   18   41 1
    30   19   20 1
    31   19   21 1
    32   19   42 1
    33   20   43 1
    34   21   22 1
    35   21   44 1
    36   22   23 ar
    37   22   31 ar
    38   23   24 ar
    39   23   45 1
    40   24   25 ar
    41   24   49 1
    42   25   26 ar
    43   25   31 ar
    44   26   27 1
    45   26   28 ar
    46   27   46 1
    47   27   47 1
    48   28   29 ar
    49   29   30 ar
    50   29   48 1
    51   30   31 ar
@<TRIPOS>SUBSTRUCTURE
     1 ACP         1 GROUP 0 A     ****
@<TRIPOS>MOLECULE
[[5-(6-amino-7,8-dihydropurin-8-ylium-9-yl)-3,4-dihydroxy-tetrahydrofuran-2-yl]methoxy-hydroxy-phosphoryl]oxy-(phosphonomethyl)phosphinate
   49    51     1     0     0
SMALL
USER_CHARGES

@<TRIPOS>ATOM
      1 PG          1.7380    1.3523   -6.5217 P.3       1 ACP         1.6362
      2 O1G         2.2119    1.6803   -5.1377 O.2       1 ACP        -0.8691
      3 O2G         0.2081    1.7566   -6.8470 O.3       1 ACP        -0.8016
      4 O3G         2.5759    2.0365   -7.7216 O.3       1 ACP        -0.8016
      5 PB          0.8556   -1.6824   -5.9789 P.3       1 ACP         1.4874
      6 O1B         1.1540   -3.0226   -6.6100 O.co2     1 ACP        -0.8240
      7 O2B        -0.5548   -1.1658   -5.8137 O.co2     1 ACP        -0.8240
      8 C3B         1.7984   -0.4070   -6.9308 C.3       1 ACP        -0.6510
      9 PA          1.5750   -2.4621   -3.2281 P.3       1 ACP         1.7966
     10 O1A         1.9285   -3.9069   -3.4315 O.2       1 ACP        -0.8436
     11 O2A         0.0702   -2.2121   -2.6893 O.3       1 ACP        -0.8190
     12 O3A         1.6570   -1.5553   -4.5648 O.3       1 ACP        -0.7947
     13 O5'         2.5233   -1.6622   -2.1894 O.3       1 ACP        -0.5846
     14 C5'         2.2816   -0.2918   -1.9206 C.3       1 ACP         0.2005
     15 C4'         2.7248    0.0226   -0.4980 C.3       1 ACP         0.0711
     16 O4'         2.4697    1.4219   -0.2462 O.3       1 ACP        -0.4064
     17 C3'         1.9404   -0.7419    0.5596 C.3       1 ACP         0.0975
     18 O3'         2.7418   -0.8086    1.7389 O.3       1 ACP        -0.5957
     19 C2'         0.7477    0.1630    0.7858 C.3       1 ACP         0.1195
     20 O2'         0.1373   -0.0577    2.0407 O.3       1 ACP        -0.5845
     21 C1'         1.3733    1.5427    0.6747 C.3       1 ACP         0.4064
     22 N9          0.4520    2.5240    0.1767 N.pl3     1 ACP        -0.5630
     23 C8         -0.8602    2.5861    0.3496 C.ar      1 ACP         0.2808
     24 N7         -1.4308    3.6326   -0.2443 N.pl3     1 ACP        -0.5040
     25 C5         -0.4080    4.2856   -0.8394 C.ar      1 ACP        -0.2807
     26 C6         -0.3432    5.4196   -1.5943 C.ar      1 ACP         0.7712
     27 N6         -1.5276    6.1333   -1.8702 N.pl3     1 ACP        -0.9461
     28 N1          0.8395    5.8603   -2.0764 N.ar      1 ACP        -0.7457
     29 C2          1.9319    5.1095   -1.7617 C.ar      1 ACP         0.7201
     30 N3          1.9773    3.9761   -1.0249 N.ar      1 ACP        -0.6849
     31 C4          0.7724    3.6031   -0.5836 C.ar      1 ACP         0.6369
     32 HOG2       -0.1551    1.5652   -7.7379 H         1 ACP         0.4781
     33 HOG3        2.6229    3.0151   -7.7708 H         1 ACP         0.4781
     34 H3B1        1.4718   -0.5059   -7.9722 H         1 ACP         0.1236
     35 H3B2        2.8486   -0.7187   -6.8951 H         1 ACP         0.1236
     36 HOA2       -0.1963   -2.6013   -1.8292 H         1 ACP         0.4716
     37 H5'1        2.8428    0.3150   -2.6387 H         1 ACP         0.0529
     38 H5'2        1.2124   -0.0896   -2.0417 H         1 ACP         0.0529
     39 H4'         3.8049   -0.1388   -0.4009 H         1 ACP         0.1213
     40 H3'         1.6783   -1.7629    0.2715 H         1 ACP         0.0524
     41 HO3'        2.2232   -1.2979    2.3953 H         1 ACP         0.4707
     42 H2'        -0.0011    0.0027    0.0003 H         1 ACP         0.0774
     43 HO2'       -0.1563   -0.9855    2.0596 H         1 ACP         0.4561
     44 H1'         1.7826    1.9024    1.6451 H         1 ACP         0.1559
     45 H8         -1.4217    1.8638    0.9164 H         1 ACP         0.2754
     46 HN61       -2.4023    5.7711   -1.5477 H         1 ACP         0.4584
     47 HN62       -1.4856    6.9379   -2.4627 H         1 ACP         0.4584
     48 H2          2.8789    5.4660   -2.1503 H         1 ACP         0.0892
     49 H49        -2.4129    3.8706   -0.2402 H         1 ACP         0.5039
@<TRIPOS>BOND
     1    1    2 2
     2    1    3 1
     3    1    4 1
     4    1    8 1
     5    3   32 1
     6    4   33 1
     7    5    6 2
     8    5    7 1
     9    5    8 1
    10    5   12 1
    11    8   34 1
    12    8   35 1
    13    9   10 2
    14    9   11 1
    15    9   12 1
    16    9   13 1
    17   11   36 1
    18   13   14 1
    19   14   15 1
    20   14   37 1
    21   14   38 1
    22   15   16 1
    23   15   17 1
    24   15   39 1
    25   16   21 1
    26   17   18 1
    27   17   19 1
    28   17   40 1
    29   18   41 1
    30   19   20 1
    31   19   21 1
    32   19   42 1
    33   20   43 1
    34   21   22 1
    35   21   44 1
    36   22   23 ar
    37   22   31 ar
    38   23   24 ar
    39   23   45 1
    40   24   25 ar
    41   24   49 1
    42   25   26 ar
    43   25   31 ar
    44   26   27 1
    45   26   28 ar
    46   27   46 1
    47   27   47 1
    48   28   29 ar
    49   29   30 ar
    50   29   48 1
    51   30   31 ar
@<TRIPOS>SUBSTRUCTURE
     1 ACP         1 GROUP 0 A     ****
@<TRIPOS>MOLECULE
[[5-(6-amino-7,8-dihydropurin-8-ylium-9-yl)-3,4-dihydroxy-tetrahydrofuran-2-yl]methoxy-hydroxy-phosphoryl]oxy-(phosphonomethyl)phosphinate
   49    51     1     0     0
SMALL
USER_CHARGES

@<TRIPOS>ATOM
      1 PG         -1.1290    0.7639   -5.8646 P.3       1 ACP         1.6362
      2 O1G        -0.8192    1.7735   -6.9286 O.2       1 ACP        -0.8691
      3 O2G        -0.6267    1.1448   -4.3771 O.3       1 ACP        -0.8016
      4 O3G        -2.6963    0.4281   -5.6628 O.3       1 ACP        -0.8016
      5 PB          1.4325   -1.1192   -6.2832 P.3       1 ACP         1.4874
      6 O1B         1.9145   -0.2900   -7.4509 O.co2     1 ACP        -0.8240
      7 O2B         1.6841   -2.6065   -6.1927 O.co2     1 ACP        -0.8240
      8 C3B        -0.3943   -0.8630   -6.1469 C.3       1 ACP        -0.6510
      9 PA          3.3384   -0.0297   -4.3151 P.3       1 ACP         1.7966
     10 O1A         4.1258    0.9106   -5.1809 O.2       1 ACP        -0.8436
     11 O2A         4.0360   -1.4716   -4.0883 O.3       1 ACP        -0.8190
     12 O3A         1.8718   -0.4013   -4.8868 O.3       1 ACP        -0.7947
     13 O5'         3.0190    0.5130   -2.8246 O.3       1 ACP        -0.5846
     14 C5'         2.2816   -0.2918   -1.9206 C.3       1 ACP         0.2005
     15 C4'         2.7248    0.0226   -0.4980 C.3       1 ACP         0.0711
     16 O4'         2.4697    1.4219   -0.2462 O.3       1 ACP        -0.4064
     17 C3'         1.9404   -0.7419    0.5596 C.3       1 ACP         0.0975
     18 O3'         2.7418   -0.8086    1.7389 O.3       1 ACP        -0.5957
     19 C2'         0.7477    0.1630    0.7858 C.3       1 ACP         0.1195
     20 O2'         0.1373   -0.0577    2.0407 O.3       1 ACP        -0.5845
     21 C1'         1.3733    1.5427    0.6747 C.3       1 ACP         0.4064
     22 N9          0.4520    2.5240    0.1767 N.pl3     1 ACP        -0.5630
     23 C8         -0.8602    2.5861    0.3496 C.ar      1 ACP         0.2808
     24 N7         -1.4308    3.6326   -0.2443 N.pl3     1 ACP        -0.5040
     25 C5         -0.4080    4.2856   -0.8394 C.ar      1 ACP        -0.2807
     26 C6         -0.3432    5.4196   -1.5943 C.ar      1 ACP         0.7712
     27 N6         -1.5276    6.1333   -1.8702 N.pl3     1 ACP        -0.9461
     28 N1          0.8395    5.8603   -2.0764 N.ar      1 ACP        -0.7457
     29 C2          1.9319    5.1095   -1.7617 C.ar      1 ACP         0.7201
     30 N3          1.9773    3.9761   -1.0249 N.ar      1 ACP        -0.6849
     31 C4          0.7724    3.6031   -0.5836 C.ar      1 ACP         0.6369
     32 HOG2        0.3312    1.2868   -4.2206 H         1 ACP         0.4781
     33 HOG3       -3.3092    1.1521   -5.4129 H         1 ACP         0.4781
     34 H3B1       -0.7295   -1.5127   -5.3306 H         1 ACP         0.1236
     35 H3B2       -0.8253   -1.2643   -7.0712 H         1 ACP         0.1236
     36 HOA2        4.2237   -2.0356   -4.8687 H         1 ACP         0.4716
     37 H5'1        1.2149   -0.0786   -2.0446 H         1 ACP         0.0529
     38 H5'2        2.4640   -1.3459   -2.1539 H         1 ACP         0.0529
     39 H4'         3.8049   -0.1388   -0.4009 H         1 ACP         0.1213
     40 H3'         1.6783   -1.7629    0.2715 H         1 ACP         0.0524
     41 HO3'        2.2232   -1.2979    2.3953 H         1 ACP         0.4707
     42 H2'        -0.0011    0.0027    0.0003 H         1 ACP         0.0774
     43 HO2'       -0.1563   -0.9855    2.0596 H         1 ACP         0.4561
     44 H1'         1.7826    1.9024    1.6451 H         1 ACP         0.1559
     45 H8         -1.4217    1.8638    0.9164 H         1 ACP         0.2754
     46 HN61       -2.4023    5.7711   -1.5477 H         1 ACP         0.4584
     47 HN62       -1.4856    6.9379   -2.4627 H         1 ACP         0.4584
     48 H2          2.8789    5.4660   -2.1503 H         1 ACP         0.0892
     49 H49        -2.4129    3.8706   -0.2402 H         1 ACP         0.5039
@<TRIPOS>BOND
     1    1    2 2
     2    1    3 1
     3    1    4 1
     4    1    8 1
     5    3   32 1
     6    4   33 1
     7    5    6 2
     8    5    7 1
     9    5    8 1
    10    5   12 1
    11    8   34 1
    12    8   35 1
    13    9   10 2
    14    9   11 1
    15    9   12 1
    16    9   13 1
    17   11   36 1
    18   13   14 1
    19   14   15 1
    20   14   37 1
    21   14   38 1
    22   15   16 1
    23   15   17 1
    24   15   39 1
    25   16   21 1
    26   17   18 1
    27   17   19 1
    28   17   40 1
    29   18   41 1
    30   19   20 1
    31   19   21 1
    32   19   42 1
    33   20   43 1
    34   21   22 1
    35   21   44 1
    36   22   23 ar
    37   22   31 ar
    38   23   24 ar
    39   23   45 1
    40   24   25 ar
    41   24   49 1
    42   25   26 ar
    43   25   31 ar
    44   26   27 1
    45   26   28 ar
    46   27   46 1
    47   27   47 1
    48   28   29 ar
    49   29   30 ar
    50   29   48 1
    51   30   31 ar
@<TRIPOS>SUBSTRUCTURE
     1 ACP         1 GROUP 0 A     ****
@<TRIPOS>MOLECULE
[[5-(6-amino-7,8-dihydropurin-8-ylium-9-yl)-3,4-dihydroxy-tetrahydrofuran-2-yl]methoxy-hydroxy-phosphoryl]oxy-(phosphonomethyl)phosphinate
   49    51     1     0     0
SMALL
USER_CHARGES

@<TRIPOS>ATOM
      1 PG         -6.0854   -4.8026    4.8506 P.3       1 ACP         1.6362
      2 O1G        -6.8217   -3.7913    5.6767 O.2       1 ACP        -0.8691
      3 O2G        -4.8531   -5.5405    5.5902 O.3       1 ACP        -0.8016
      4 O3G        -6.9809   -6.0252    4.2912 O.3       1 ACP        -0.8016
      5 PB         -4.3662   -5.1766    2.1697 P.3       1 ACP         1.4874
      6 O1B        -3.8954   -4.2722    1.0543 O.co2     1 ACP        -0.8240
      7 O2B        -5.1815   -6.4216    1.9076 O.co2     1 ACP        -0.8240
      8 C3B        -5.3284   -4.1304    3.3534 C.3       1 ACP        -0.6510
      9 PA         -1.7112   -6.2792    2.8234 P.3       1 ACP         1.7966
     10 O1A        -1.8536   -7.6783    2.2982 O.2       1 ACP        -0.8436
     11 O2A        -0.8909   -6.1678    4.2134 O.3       1 ACP        -0.8190
     12 O3A        -3.1111   -5.5365    3.1461 O.3       1 ACP        -0.7947
     13 O5'        -0.9731   -5.2421    1.8246 O.3       1 ACP        -0.5846
     14 C5'        -0.7840   -3.8935    2.2172 C.3       1 ACP         0.2005
     15 C4'        -0.0724   -3.1466    1.1027 C.3       1 ACP         0.0711
     16 O4'        -0.8674   -3.1929   -0.0945 O.3       1 ACP        -0.4064
     17 C3'         0.1338   -1.6715    1.4027 C.3       1 ACP         0.0975
     18 O3'         1.2893   -1.4445    2.1808 O.3       1 ACP        -0.5957
     19 C2'         0.2158   -1.0724    0.0128 C.3       1 ACP         0.1195
     20 O2'         1.5141   -1.2448   -0.5513 O.3       1 ACP        -0.5845
     21 C1'        -0.7897   -1.9176   -0.7583 C.3       1 ACP         0.4064
     22 N9         -2.1040   -1.3333   -0.7704 N.pl3     1 ACP        -0.5630
     23 C8         -2.8739   -1.0133    0.2593 C.ar      1 ACP         0.2808
     24 N7         -4.0439   -0.4818   -0.0902 N.pl3     1 ACP        -0.5040
     25 C5         -4.0184   -0.4615   -1.4414 C.ar      1 ACP        -0.2807
     26 C6         -4.9120   -0.0399   -2.3814 C.ar      1 ACP         0.7712
     27 N6         -6.1459    0.5018   -1.9665 N.pl3     1 ACP        -0.9461
     28 N1         -4.6250   -0.1374   -3.6981 N.ar      1 ACP        -0.7457
     29 C2         -3.4114   -0.6729   -4.0088 C.ar      1 ACP         0.7201
     30 N3         -2.4579   -1.1190   -3.1595 N.ar      1 ACP        -0.6849
     31 C4         -2.8124   -0.9904   -1.8776 C.ar      1 ACP         0.6369
     32 HOG2       -4.3357   -6.2120    5.0966 H         1 ACP         0.4781
     33 HOG3       -7.4398   -6.6101    4.9313 H         1 ACP         0.4781
     34 H3B1       -6.1316   -3.6716    2.7657 H         1 ACP         0.1236
     35 H3B2       -4.6546   -3.3217    3.6584 H         1 ACP         0.1236
     36 HOA2       -1.2307   -6.6393    5.0036 H         1 ACP         0.4716
     37 H5'1       -1.7611   -3.4417    2.4168 H         1 ACP         0.0529
     38 H5'2       -0.1868   -3.8712    3.1345 H         1 ACP         0.0529
     39 H4'         0.8886   -3.6448    0.8780 H         1 ACP         0.1213
     40 H3'        -0.7374   -1.2358    1.9870 H         1 ACP         0.0524
     41 HO3'        1.3408   -0.4870    2.3219 H         1 ACP         0.4707
     42 H2'        -0.0384   -0.0310    0.0096 H         1 ACP         0.0774
     43 HO2'        2.1463   -0.7958    0.0370 H         1 ACP         0.4561
     44 H1'        -0.4769   -2.1002   -1.8093 H         1 ACP         0.1559
     45 H8         -2.5891   -1.1636    1.2862 H         1 ACP         0.2754
     46 HN61       -6.3657    0.5248   -0.9911 H         1 ACP         0.4584
     47 HN62       -6.8193    0.7669   -2.6568 H         1 ACP         0.4584
     48 H2         -3.1848   -0.7497   -5.0660 H         1 ACP         0.0892
     49 H49        -4.7768   -0.1684    0.5309 H         1 ACP         0.5039
@<TRIPOS>BOND
     1    1    2 2
     2    1    3 1
     3    1    4 1
     4    1    8 1
     5    3   32 1
     6    4   33 1
     7    5    6 2
     8    5    7 1
     9    5    8 1
    10    5   12 1
    11    8   34 1
    12    8   35 1
    13    9   10 2
    14    9   11 1
    15    9   12 1
    16    9   13 1
    17   11   36 1
    18   13   14 1
    19   14   15 1
    20   14   37 1
    21   14   38 1
    22   15   16 1
    23   15   17 1
    24   15   39 1
    25   16   21 1
    26   17   18 1
    27   17   19 1
    28   17   40 1
    29   18   41 1
    30   19   20 1
    31   19   21 1
    32   19   42 1
    33   20   43 1
    34   21   22 1
    35   21   44 1
    36   22   23 ar
    37   22   31 ar
    38   23   24 ar
    39   23   45 1
    40   24   25 ar
    41   24   49 1
    42   25   26 ar
    43   25   31 ar
    44   26   27 1
    45   26   28 ar
    46   27   46 1
    47   27   47 1
    48   28   29 ar
    49   29   30 ar
    50   29   48 1
    51   30   31 ar
@<TRIPOS>SUBSTRUCTURE
     1 ACP         1 GROUP 0 A     ****
@<TRIPOS>MOLECULE
[[5-(6-amino-7,8-dihydropurin-8-ylium-9-yl)-3,4-dihydroxy-tetrahydrofuran-2-yl]methoxy-hydroxy-phosphoryl]oxy-(phosphonomethyl)phosphinate
   49    51     1     0     0
SMALL
USER_CHARGES

@<TRIPOS>ATOM
      1 PG         -1.2914    1.4515   -6.3995 P.3       1 ACP         1.6362
      2 O1G        -0.8310    0.0925   -6.8337 O.2       1 ACP        -0.8691
      3 O2G        -0.9491    2.6596   -7.4162 O.3       1 ACP        -0.8016
      4 O3G        -2.8814    1.5992   -6.1544 O.3       1 ACP        -0.8016
      5 PB          1.2398    2.2168   -4.5856 P.3       1 ACP         1.4874
      6 O1B         1.4460    2.6955   -3.1672 O.co2     1 ACP        -0.8240
      7 O2B         1.7722    2.9771   -5.7780 O.co2     1 ACP        -0.8240
      8 C3B        -0.5816    2.0121   -4.8348 C.3       1 ACP        -0.6510
      9 PA          3.0853   -0.0761   -4.4159 P.3       1 ACP         1.7966
     10 O1A         4.2171    0.4133   -5.2721 O.2       1 ACP        -0.8436
     11 O2A         2.7514   -1.6500   -4.5859 O.3       1 ACP        -0.8190
     12 O3A         1.6668    0.6474   -4.6987 O.3       1 ACP        -0.7947
     13 O5'         3.2874    0.1331   -2.8242 O.3       1 ACP        -0.5846
     14 C5'         2.2816   -0.2918   -1.9206 C.3       1 ACP         0.2005
     15 C4'         2.7248    0.0226   -0.4980 C.3       1 ACP         0.0711
     16 O4'         2.4697    1.4219   -0.2462 O.3       1 ACP        -0.4064
     17 C3'         1.9404   -0.7419    0.5596 C.3       1 ACP         0.0975
     18 O3'         2.7418   -0.8086    1.7389 O.3       1 ACP        -0.5957
     19 C2'         0.7477    0.1630    0.7858 C.3       1 ACP         0.1195
     20 O2'         0.1373   -0.0577    2.0407 O.3       1 ACP        -0.5845
     21 C1'         1.3733    1.5427    0.6747 C.3       1 ACP         0.4064
     22 N9          0.4520    2.5240    0.1767 N.pl3     1 ACP        -0.5630
     23 C8         -0.8252    2.3702   -0.1405 C.ar      1 ACP         0.2808
     24 N7         -1.4086    3.4861   -0.5739 N.pl3     1 ACP        -0.5040
     25 C5         -0.4324    4.4197   -0.5299 C.ar      1 ACP        -0.2807
     26 C6         -0.4006    5.7465   -0.8438 C.ar      1 ACP         0.7712
     27 N6         -1.5714    6.3708   -1.3211 N.pl3     1 ACP        -0.9461
     28 N1          0.7371    6.4615   -0.7020 N.ar      1 ACP        -0.7457
     29 C2          1.8196    5.7785   -0.2355 C.ar      1 ACP         0.7201
     30 N3          1.8948    4.4713    0.1036 N.ar      1 ACP        -0.6849
     31 C4          0.7337    3.8311   -0.0629 C.ar      1 ACP         0.6369
     32 HOG2       -0.0111    2.8457   -7.6345 H         1 ACP         0.4781
     33 HOG3       -3.4953    1.4269   -6.8999 H         1 ACP         0.4781
     34 H3B1       -1.0278    2.9878   -4.6112 H         1 ACP         0.1236
     35 H3B2       -0.9177    1.3212   -4.0532 H         1 ACP         0.1236
     36 HOA2        3.4497   -2.3077   -4.3811 H         1 ACP         0.4716
     37 H5'1        1.3494    0.2322   -2.1552 H         1 ACP         0.0529
     38 H5'2        2.1260   -1.3686   -2.0435 H         1 ACP         0.0529
     39 H4'         3.8049   -0.1388   -0.4009 H         1 ACP         0.1213
     40 H3'         1.6783   -1.7629    0.2715 H         1 ACP         0.0524
     41 HO3'        2.2232   -1.2979    2.3953 H         1 ACP         0.4707
     42 H2'        -0.0011    0.0027    0.0003 H         1 ACP         0.0774
     43 HO2'        0.8082    0.1199    2.7232 H         1 ACP         0.4561
     44 H1'         1.7826    1.9024    1.6451 H         1 ACP         0.1559
     45 H8         -1.3516    1.4351   -0.0582 H         1 ACP         0.2754
     46 HN61       -2.3936    5.8204   -1.4664 H         1 ACP         0.4584
     47 HN62       -1.5348    7.3319   -1.5955 H         1 ACP         0.4584
     48 H2          2.7305    6.3553   -0.1232 H         1 ACP         0.0892
     49 H49        -2.3700    3.5931   -0.8665 H         1 ACP         0.5039
@<TRIPOS>BOND
     1    1    2 2
     2    1    3 1
     3    1    4 1
     4    1    8 1
     5    3   32 1
     6    4   33 1
     7    5    6 2
     8    5    7 1
     9    5    8 1
    10    5   12 1
    11    8   34 1
    12    8   35 1
    13    9   10 2
    14    9   11 1
    15    9   12 1
    16    9   13 1
    17   11   36 1
    18   13   14 1
    19   14   15 1
    20   14   37 1
    21   14   38 1
    22   15   16 1
    23   15   17 1
    24   15   39 1
    25   16   21 1
    26   17   18 1
    27   17   19 1
    28   17   40 1
    29   18   41 1
    30   19   20 1
    31   19   21 1
    32   19   42 1
    33   20   43 1
    34   21   22 1
    35   21   44 1
    36   22   23 ar
    37   22   31 ar
    38   23   24 ar
    39   23   45 1
    40   24   25 ar
    41   24   49 1
    42   25   26 ar
    43   25   31 ar
    44   26   27 1
    45   26   28 ar
    46   27   46 1
    47   27   47 1
    48   28   29 ar
    49   29   30 ar
    50   29   48 1
    51   30   31 ar
@<TRIPOS>SUBSTRUCTURE
     1 ACP         1 GROUP 0 A     ****
@<TRIPOS>MOLECULE
[[5-(6-amino-7,8-dihydropurin-8-ylium-9-yl)-3,4-dihydroxy-tetrahydrofuran-2-yl]methoxy-hydroxy-phosphoryl]oxy-(phosphonomethyl)phosphinate
   49    51     1     0     0
SMALL
USER_CHARGES

@<TRIPOS>ATOM
      1 PG          4.1727    1.6809   -6.0073 P.3       1 ACP         1.6362
      2 O1G         3.9337    1.8665   -4.5390 O.2       1 ACP        -0.8691
      3 O2G         3.0298    2.2802   -6.9792 O.3       1 ACP        -0.8016
      4 O3G         5.5366    2.3340   -6.5756 O.3       1 ACP        -0.8016
      5 PB          2.9196   -1.2572   -6.2908 P.3       1 ACP         1.4874
      6 O1B         3.3896   -2.5824   -6.8445 O.co2     1 ACP        -0.8240
      7 O2B         1.6496   -0.5902   -6.7659 O.co2     1 ACP        -0.8240
      8 C3B         4.2969   -0.0454   -6.5278 C.3       1 ACP        -0.6510
      9 PA          2.1469   -2.2812   -3.6362 P.3       1 ACP         1.7966
     10 O1A         2.4486   -3.7424   -3.8027 O.2       1 ACP        -0.8436
     11 O2A         0.5931   -1.8902   -3.8605 O.3       1 ACP        -0.8190
     12 O3A         2.9361   -1.3107   -4.6613 O.3       1 ACP        -0.7947
     13 O5'         2.5233   -1.6622   -2.1894 O.3       1 ACP        -0.5846
     14 C5'         2.2816   -0.2918   -1.9206 C.3       1 ACP         0.2005
     15 C4'         2.7248    0.0226   -0.4980 C.3       1 ACP         0.0711
     16 O4'         2.4697    1.4219   -0.2462 O.3       1 ACP        -0.4064
     17 C3'         1.9404   -0.7419    0.5596 C.3       1 ACP         0.0975
     18 O3'         2.7418   -0.8086    1.7389 O.3       1 ACP        -0.5957
     19 C2'         0.7477    0.1630    0.7858 C.3       1 ACP         0.1195
     20 O2'         0.1373   -0.0577    2.0407 O.3       1 ACP        -0.5845
     21 C1'         1.3733    1.5427    0.6747 C.3       1 ACP         0.4064
     22 N9          0.4520    2.5240    0.1767 N.pl3     1 ACP        -0.5630
     23 C8         -0.3477    3.3274    0.8626 C.ar      1 ACP         0.2808
     24 N7         -1.0836    4.1323    0.0983 N.pl3     1 ACP        -0.5040
     25 C5         -0.7273    3.8194   -1.1674 C.ar      1 ACP        -0.2807
     26 C6         -1.1208    4.2877   -2.3863 C.ar      1 ACP         0.7712
     27 N6         -2.0932    5.3066   -2.4528 N.pl3     1 ACP        -0.9461
     28 N1         -0.5892    3.7853   -3.5223 N.ar      1 ACP        -0.7457
     29 C2          0.3427    2.8040   -3.3648 C.ar      1 ACP         0.7201
     30 N3          0.8012    2.2709   -2.2093 N.ar      1 ACP        -0.6849
     31 C4          0.2307    2.8167   -1.1312 C.ar      1 ACP         0.6369
     32 HOG2        3.1346    2.1870   -7.9501 H         1 ACP         0.4781
     33 HOG3        5.6727    3.3015   -6.4884 H         1 ACP         0.4781
     34 H3B1        4.5135   -0.0420   -7.6021 H         1 ACP         0.1236
     35 H3B2        5.1703   -0.4793   -6.0278 H         1 ACP         0.1236
     36 HOA2       -0.0865   -2.2971   -3.2819 H         1 ACP         0.4716
     37 H5'1        2.8428    0.3150   -2.6387 H         1 ACP         0.0529
     38 H5'2        1.2124   -0.0896   -2.0417 H         1 ACP         0.0529
     39 H4'         3.8049   -0.1388   -0.4009 H         1 ACP         0.1213
     40 H3'         1.6783   -1.7629    0.2715 H         1 ACP         0.0524
     41 HO3'        2.2232   -1.2979    2.3953 H         1 ACP         0.4707
     42 H2'        -0.0011    0.0027    0.0003 H         1 ACP         0.0774
     43 HO2'       -0.6141    0.5574    2.1082 H         1 ACP         0.4561
     44 H1'         1.7826    1.9024    1.6451 H         1 ACP         0.1559
     45 H8         -0.4040    3.3373    1.9373 H         1 ACP         0.2754
     46 HN61       -2.5133    5.6366   -1.6073 H         1 ACP         0.4584
     47 HN62       -2.4153    5.6161   -3.3477 H         1 ACP         0.4584
     48 H2          0.7668    2.4032   -4.2782 H         1 ACP         0.0892
     49 H49        -1.7549    4.8194    0.4122 H         1 ACP         0.5039
@<TRIPOS>BOND
     1    1    2 2
     2    1    3 1
     3    1    4 1
     4    1    8 1
     5    3   32 1
     6    4   33 1
     7    5    6 2
     8    5    7 1
     9    5    8 1
    10    5   12 1
    11    8   34 1
    12    8   35 1
    13    9   10 2
    14    9   11 1
    15    9   12 1
    16    9   13 1
    17   11   36 1
    18   13   14 1
    19   14   15 1
    20   14   37 1
    21   14   38 1
    22   15   16 1
    23   15   17 1
    24   15   39 1
    25   16   21 1
    26   17   18 1
    27   17   19 1
    28   17   40 1
    29   18   41 1
    30   19   20 1
    31   19   21 1
    32   19   42 1
    33   20   43 1
    34   21   22 1
    35   21   44 1
    36   22   23 ar
    37   22   31 ar
    38   23   24 ar
    39   23   45 1
    40   24   25 ar
    41   24   49 1
    42   25   26 ar
    43   25   31 ar
    44   26   27 1
    45   26   28 ar
    46   27   46 1
    47   27   47 1
    48   28   29 ar
    49   29   30 ar
    50   29   48 1
    51   30   31 ar
@<TRIPOS>SUBSTRUCTURE
     1 ACP         1 GROUP 0 A     ****
@<TRIPOS>MOLECULE
[[5-(6-amino-7,8-dihydropurin-8-ylium-9-yl)-3,4-dihydroxy-tetrahydrofuran-2-yl]methoxy-hydroxy-phosphoryl]oxy-(phosphonomethyl)phosphinate
   49    51     1     0     0
SMALL
USER_CHARGES

@<TRIPOS>ATOM
      1 PG         -1.0082   -4.7262    8.1436 P.3       1 ACP         1.6362
      2 O1G         0.0355   -5.4340    8.9543 O.2       1 ACP        -0.8691
      3 O2G        -2.0091   -5.6827    7.3108 O.3       1 ACP        -0.8016
      4 O3G        -2.0048   -3.7690    8.9805 O.3       1 ACP        -0.8016
      5 PB         -1.4275   -2.6340    5.7500 P.3       1 ACP         1.4874
      6 O1B        -0.5201   -1.8381    4.8406 O.co2     1 ACP        -0.8240
      7 O2B        -2.4864   -1.9786    6.6058 O.co2     1 ACP        -0.8240
      8 C3B        -0.3432   -3.6198    6.8787 C.3       1 ACP        -0.6510
      9 PA         -3.0212   -3.8715    3.6003 P.3       1 ACP         1.7966
     10 O1A        -4.3226   -3.1408    3.7625 O.2       1 ACP        -0.8436
     11 O2A        -3.1769   -5.4412    3.2407 O.3       1 ACP        -0.8190
     12 O3A        -2.0826   -3.8733    4.9174 O.3       1 ACP        -0.7947
     13 O5'        -2.0397   -3.2817    2.4572 O.3       1 ACP        -0.5846
     14 C5'        -0.7840   -3.8935    2.2172 C.3       1 ACP         0.2005
     15 C4'        -0.0724   -3.1466    1.1027 C.3       1 ACP         0.0711
     16 O4'        -0.8674   -3.1929   -0.0945 O.3       1 ACP        -0.4064
     17 C3'         0.1338   -1.6715    1.4027 C.3       1 ACP         0.0975
     18 O3'         1.2893   -1.4445    2.1808 O.3       1 ACP        -0.5957
     19 C2'         0.2158   -1.0724    0.0128 C.3       1 ACP         0.1195
     20 O2'         1.5141   -1.2448   -0.5513 O.3       1 ACP        -0.5845
     21 C1'        -0.7897   -1.9176   -0.7583 C.3       1 ACP         0.4064
     22 N9         -2.1040   -1.3333   -0.7704 N.pl3     1 ACP        -0.5630
     23 C8         -3.2304   -1.8262   -0.2767 C.ar      1 ACP         0.2808
     24 N7         -4.2847   -1.0309   -0.4481 N.pl3     1 ACP        -0.5040
     25 C5         -3.7951    0.0479   -1.0985 C.ar      1 ACP        -0.2807
     26 C6         -4.3691    1.1983   -1.5536 C.ar      1 ACP         0.7712
     27 N6         -5.7501    1.4047   -1.3573 N.pl3     1 ACP        -0.9461
     28 N1         -3.6289    2.1345   -2.1869 N.ar      1 ACP        -0.7457
     29 C2         -2.3041    1.8525   -2.3333 C.ar      1 ACP         0.7201
     30 N3         -1.6387    0.7492   -1.9218 N.ar      1 ACP        -0.6849
     31 C4         -2.4348   -0.1293   -1.3053 C.ar      1 ACP         0.6369
     32 HOG2       -2.7119   -5.2731    6.7627 H         1 ACP         0.4781
     33 HOG3       -2.5579   -4.1620    9.6889 H         1 ACP         0.4781
     34 H3B1        0.2969   -2.8933    7.3919 H         1 ACP         0.1236
     35 H3B2        0.3079   -4.2149    6.2284 H         1 ACP         0.1236
     36 HOA2       -3.6470   -5.6948    2.4181 H         1 ACP         0.4716
     37 H5'1       -0.1919   -3.8613    3.1376 H         1 ACP         0.0529
     38 H5'2       -0.9466   -4.9385    1.9341 H         1 ACP         0.0529
     39 H4'         0.8886   -3.6448    0.8780 H         1 ACP         0.1213
     40 H3'        -0.7374   -1.2358    1.9870 H         1 ACP         0.0524
     41 HO3'        1.3408   -0.4870    2.3219 H         1 ACP         0.4707
     42 H2'        -0.0384   -0.0310    0.0096 H         1 ACP         0.0774
     43 HO2'        2.1463   -0.7958    0.0370 H         1 ACP         0.4561
     44 H1'        -0.4769   -2.1002   -1.8093 H         1 ACP         0.1559
     45 H8         -3.2974   -2.7789    0.2194 H         1 ACP         0.2754
     46 HN61       -6.2956    0.6838   -0.9296 H         1 ACP         0.4584
     47 HN62       -6.1788    2.2266   -1.7327 H         1 ACP         0.4584
     48 H2         -1.7135    2.6057   -2.8421 H         1 ACP         0.0892
     49 H49        -5.2337   -1.2102   -0.1507 H         1 ACP         0.5039
@<TRIPOS>BOND
     1    1    2 2
     2    1    3 1
     3    1    4 1
     4    1    8 1
     5    3   32 1
     6    4   33 1
     7    5    6 2
     8    5    7 1
     9    5    8 1
    10    5   12 1
    11    8   34 1
    12    8   35 1
    13    9   10 2
    14    9   11 1
    15    9   12 1
    16    9   13 1
    17   11   36 1
    18   13   14 1
    19   14   15 1
    20   14   37 1
    21   14   38 1
    22   15   16 1
    23   15   17 1
    24   15   39 1
    25   16   21 1
    26   17   18 1
    27   17   19 1
    28   17   40 1
    29   18   41 1
    30   19   20 1
    31   19   21 1
    32   19   42 1
    33   20   43 1
    34   21   22 1
    35   21   44 1
    36   22   23 ar
    37   22   31 ar
    38   23   24 ar
    39   23   45 1
    40   24   25 ar
    41   24   49 1
    42   25   26 ar
    43   25   31 ar
    44   26   27 1
    45   26   28 ar
    46   27   46 1
    47   27   47 1
    48   28   29 ar
    49   29   30 ar
    50   29   48 1
    51   30   31 ar
@<TRIPOS>SUBSTRUCTURE
     1 ACP         1 GROUP 0 A     ****
@<TRIPOS>MOLECULE
[[5-(6-amino-7,8-dihydropurin-8-ylium-9-yl)-3,4-dihydroxy-tetrahydrofuran-2-yl]methoxy-hydroxy-phosphoryl]oxy-(phosphonomethyl)phosphinate
   49    51     1     0     0
SMALL
USER_CHARGES

@<TRIPOS>ATOM
      1 PG          1.7380    1.3523   -6.5217 P.3       1 ACP         1.6362
      2 O1G         0.3677    1.9559   -6.5953 O.2       1 ACP        -0.8691
      3 O2G         2.8379    2.0013   -7.5112 O.3       1 ACP        -0.8016
      4 O3G         2.4465    1.4158   -5.0712 O.3       1 ACP        -0.8016
      5 PB          0.8556   -1.6824   -5.9789 P.3       1 ACP         1.4874
      6 O1B         1.1540   -3.0226   -6.6100 O.co2     1 ACP        -0.8240
      7 O2B        -0.5548   -1.1658   -5.8137 O.co2     1 ACP        -0.8240
      8 C3B         1.7984   -0.4070   -6.9308 C.3       1 ACP        -0.6510
      9 PA          1.5750   -2.4621   -3.2281 P.3       1 ACP         1.7966
     10 O1A         1.9285   -3.9069   -3.4315 O.2       1 ACP        -0.8436
     11 O2A         0.0702   -2.2121   -2.6893 O.3       1 ACP        -0.8190
     12 O3A         1.6570   -1.5553   -4.5648 O.3       1 ACP        -0.7947
     13 O5'         2.5233   -1.6622   -2.1894 O.3       1 ACP        -0.5846
     14 C5'         2.2816   -0.2918   -1.9206 C.3       1 ACP         0.2005
     15 C4'         2.7248    0.0226   -0.4980 C.3       1 ACP         0.0711
     16 O4'         2.4697    1.4219   -0.2462 O.3       1 ACP        -0.4064
     17 C3'         1.9404   -0.7419    0.5596 C.3       1 ACP         0.0975
     18 O3'         2.7418   -0.8086    1.7389 O.3       1 ACP        -0.5957
     19 C2'         0.7477    0.1630    0.7858 C.3       1 ACP         0.1195
     20 O2'         0.1373   -0.0577    2.0407 O.3       1 ACP        -0.5845
     21 C1'         1.3733    1.5427    0.6747 C.3       1 ACP         0.4064
     22 N9          0.4520    2.5240    0.1767 N.pl3     1 ACP        -0.5630
     23 C8         -0.6854    2.9365    0.7168 C.ar      1 ACP         0.2808
     24 N7         -1.3118    3.8692    0.0018 N.pl3     1 ACP        -0.5040
     25 C5         -0.5159    4.0659   -1.0727 C.ar      1 ACP        -0.2807
     26 C6         -0.6068    4.8856   -2.1589 C.ar      1 ACP         0.7712
     27 N6         -1.7186    5.7437   -2.2844 N.pl3     1 ACP        -0.9461
     28 N1          0.3541    4.8807   -3.1087 N.ar      1 ACP        -0.7457
     29 C2          1.3913    4.0207   -2.9071 C.ar      1 ACP         0.7201
     30 N3          1.5770    3.1707   -1.8715 N.ar      1 ACP        -0.6849
     31 C4          0.5883    3.2318   -0.9747 C.ar      1 ACP         0.6369
     32 HOG2        3.0532    2.9542   -7.4232 H         1 ACP         0.4781
     33 HOG3        3.3445    1.0360   -4.9638 H         1 ACP         0.4781
     34 H3B1        1.4718   -0.5059   -7.9722 H         1 ACP         0.1236
     35 H3B2        2.8486   -0.7187   -6.8951 H         1 ACP         0.1236
     36 HOA2       -0.1963   -2.6013   -1.8292 H         1 ACP         0.4716
     37 H5'1        2.8428    0.3150   -2.6387 H         1 ACP         0.0529
     38 H5'2        1.2124   -0.0896   -2.0417 H         1 ACP         0.0529
     39 H4'         3.8049   -0.1388   -0.4009 H         1 ACP         0.1213
     40 H3'         1.6783   -1.7629    0.2715 H         1 ACP         0.0524
     41 HO3'        2.2232   -1.2979    2.3953 H         1 ACP         0.4707
     42 H2'        -0.0011    0.0027    0.0003 H         1 ACP         0.0774
     43 HO2'       -0.1563   -0.9855    2.0596 H         1 ACP         0.4561
     44 H1'         1.7826    1.9024    1.6451 H         1 ACP         0.1559
     45 H8         -1.0749    2.5601    1.6468 H         1 ACP         0.2754
     46 HN61       -2.4460    5.7038   -1.5992 H         1 ACP         0.4584
     47 HN62       -1.8079    6.3099   -3.1040 H         1 ACP         0.4584
     48 H2          2.1601    4.0194   -3.6712 H         1 ACP         0.0892
     49 H49        -2.1877    4.3195    0.2279 H         1 ACP         0.5039
@<TRIPOS>BOND
     1    1    2 2
     2    1    3 1
     3    1    4 1
     4    1    8 1
     5    3   32 1
     6    4   33 1
     7    5    6 2
     8    5    7 1
     9    5    8 1
    10    5   12 1
    11    8   34 1
    12    8   35 1
    13    9   10 2
    14    9   11 1
    15    9   12 1
    16    9   13 1
    17   11   36 1
    18   13   14 1
    19   14   15 1
    20   14   37 1
    21   14   38 1
    22   15   16 1
    23   15   17 1
    24   15   39 1
    25   16   21 1
    26   17   18 1
    27   17   19 1
    28   17   40 1
    29   18   41 1
    30   19   20 1
    31   19   21 1
    32   19   42 1
    33   20   43 1
    34   21   22 1
    35   21   44 1
    36   22   23 ar
    37   22   31 ar
    38   23   24 ar
    39   23   45 1
    40   24   25 ar
    41   24   49 1
    42   25   26 ar
    43   25   31 ar
    44   26   27 1
    45   26   28 ar
    46   27   46 1
    47   27   47 1
    48   28   29 ar
    49   29   30 ar
    50   29   48 1
    51   30   31 ar
@<TRIPOS>SUBSTRUCTURE
     1 ACP         1 GROUP 0 A     ****
@<TRIPOS>MOLECULE
[[5-(6-amino-7,8-dihydropurin-8-ylium-9-yl)-3,4-dihydroxy-tetrahydrofuran-2-yl]methoxy-hydroxy-phosphoryl]oxy-(phosphonomethyl)phosphinate
   49    51     1     0     0
SMALL
USER_CHARGES

@<TRIPOS>ATOM
      1 PG         -1.2571   -1.2349   -4.4765 P.3       1 ACP         1.6362
      2 O1G        -1.6394   -0.4863   -3.2352 O.2       1 ACP        -0.8691
      3 O2G        -0.2228   -2.4572   -4.2609 O.3       1 ACP        -0.8016
      4 O3G        -2.4825   -1.9110   -5.2834 O.3       1 ACP        -0.8016
      5 PB          1.1419    0.6718   -5.4211 P.3       1 ACP         1.4874
      6 O1B         0.8969    1.6307   -4.2792 O.co2     1 ACP        -0.8240
      7 O2B         1.6693    1.1317   -6.7605 O.co2     1 ACP        -0.8240
      8 C3B        -0.4464   -0.2225   -5.7353 C.3       1 ACP        -0.6510
      9 PA          3.4946   -0.6448   -4.2278 P.3       1 ACP         1.7966
     10 O1A         4.5894   -0.1038   -5.1010 O.2       1 ACP        -0.8436
     11 O2A         3.6755   -2.1987   -3.8153 O.3       1 ACP        -0.8190
     12 O3A         2.0199   -0.5952   -4.8900 O.3       1 ACP        -0.7947
     13 O5'         3.2874    0.1331   -2.8242 O.3       1 ACP        -0.5846
     14 C5'         2.2816   -0.2918   -1.9206 C.3       1 ACP         0.2005
     15 C4'         2.7248    0.0226   -0.4980 C.3       1 ACP         0.0711
     16 O4'         2.4697    1.4219   -0.2462 O.3       1 ACP        -0.4064
     17 C3'         1.9404   -0.7419    0.5596 C.3       1 ACP         0.0975
     18 O3'         2.7418   -0.8086    1.7389 O.3       1 ACP        -0.5957
     19 C2'         0.7477    0.1630    0.7858 C.3       1 ACP         0.1195
     20 O2'         0.1373   -0.0577    2.0407 O.3       1 ACP        -0.5845
     21 C1'         1.3733    1.5427    0.6747 C.3       1 ACP         0.4064
     22 N9          0.4520    2.5240    0.1767 N.pl3     1 ACP        -0.5630
     23 C8         -0.8602    2.5861    0.3496 C.ar      1 ACP         0.2808
     24 N7         -1.4308    3.6326   -0.2443 N.pl3     1 ACP        -0.5040
     25 C5         -0.4080    4.2856   -0.8394 C.ar      1 ACP        -0.2807
     26 C6         -0.3432    5.4196   -1.5943 C.ar      1 ACP         0.7712
     27 N6         -1.5276    6.1333   -1.8702 N.pl3     1 ACP        -0.9461
     28 N1          0.8395    5.8603   -2.0764 N.ar      1 ACP        -0.7457
     29 C2          1.9319    5.1095   -1.7617 C.ar      1 ACP         0.7201
     30 N3          1.9773    3.9761   -1.0249 N.ar      1 ACP        -0.6849
     31 C4          0.7724    3.6031   -0.5836 C.ar      1 ACP         0.6369
     32 HOG2        0.6619   -2.2699   -3.8809 H         1 ACP         0.4781
     33 HOG3       -3.0389   -2.5796   -4.8298 H         1 ACP         0.4781
     34 H3B1       -0.2611   -0.8714   -6.5988 H         1 ACP         0.1236
     35 H3B2       -1.1639    0.5405   -6.0581 H         1 ACP         0.1236
     36 HOA2        3.7129   -2.8761   -4.5238 H         1 ACP         0.4716
     37 H5'1        1.3494    0.2322   -2.1552 H         1 ACP         0.0529
     38 H5'2        2.1260   -1.3686   -2.0435 H         1 ACP         0.0529
     39 H4'         3.8049   -0.1388   -0.4009 H         1 ACP         0.1213
     40 H3'         1.6783   -1.7629    0.2715 H         1 ACP         0.0524
     41 HO3'        3.5554   -1.2733    1.4914 H         1 ACP         0.4707
     42 H2'        -0.0011    0.0027    0.0003 H         1 ACP         0.0774
     43 HO2'        0.8082    0.1199    2.7232 H         1 ACP         0.4561
     44 H1'         1.7826    1.9024    1.6451 H         1 ACP         0.1559
     45 H8         -1.4217    1.8638    0.9164 H         1 ACP         0.2754
     46 HN61       -2.4023    5.7711   -1.5477 H         1 ACP         0.4584
     47 HN62       -1.4856    6.9379   -2.4627 H         1 ACP         0.4584
     48 H2          2.8789    5.4660   -2.1503 H         1 ACP         0.0892
     49 H49        -2.4129    3.8706   -0.2402 H         1 ACP         0.5039
@<TRIPOS>BOND
     1    1    2 2
     2    1    3 1
     3    1    4 1
     4    1    8 1
     5    3   32 1
     6    4   33 1
     7    5    6 2
     8    5    7 1
     9    5    8 1
    10    5   12 1
    11    8   34 1
    12    8   35 1
    13    9   10 2
    14    9   11 1
    15    9   12 1
    16    9   13 1
    17   11   36 1
    18   13   14 1
    19   14   15 1
    20   14   37 1
    21   14   38 1
    22   15   16 1
    23   15   17 1
    24   15   39 1
    25   16   21 1
    26   17   18 1
    27   17   19 1
    28   17   40 1
    29   18   41 1
    30   19   20 1
    31   19   21 1
    32   19   42 1
    33   20   43 1
    34   21   22 1
    35   21   44 1
    36   22   23 ar
    37   22   31 ar
    38   23   24 ar
    39   23   45 1
    40   24   25 ar
    41   24   49 1
    42   25   26 ar
    43   25   31 ar
    44   26   27 1
    45   26   28 ar
    46   27   46 1
    47   27   47 1
    48   28   29 ar
    49   29   30 ar
    50   29   48 1
    51   30   31 ar
@<TRIPOS>SUBSTRUCTURE
     1 ACP         1 GROUP 0 A     ****
@<TRIPOS>MOLECULE
[[5-(6-amino-7,8-dihydropurin-8-ylium-9-yl)-3,4-dihydroxy-tetrahydrofuran-2-yl]methoxy-hydroxy-phosphoryl]oxy-(phosphonomethyl)phosphinate
   49    51     1     0     0
SMALL
USER_CHARGES

@<TRIPOS>ATOM
      1 PG          5.9312   -0.2756   -5.7913 P.3       1 ACP         1.6362
      2 O1G         5.9277   -0.3519   -4.2941 O.2       1 ACP        -0.8691
      3 O2G         6.7968    0.9329   -6.4241 O.3       1 ACP        -0.8016
      4 O3G         6.4942   -1.5855   -6.5509 O.3       1 ACP        -0.8016
      5 PB          2.9196   -1.2572   -6.2908 P.3       1 ACP         1.4874
      6 O1B         3.3896   -2.5824   -6.8445 O.co2     1 ACP        -0.8240
      7 O2B         1.6496   -0.5902   -6.7659 O.co2     1 ACP        -0.8240
      8 C3B         4.2969   -0.0454   -6.5278 C.3       1 ACP        -0.6510
      9 PA          2.1469   -2.2812   -3.6362 P.3       1 ACP         1.7966
     10 O1A         2.4486   -3.7424   -3.8027 O.2       1 ACP        -0.8436
     11 O2A         0.5931   -1.8902   -3.8605 O.3       1 ACP        -0.8190
     12 O3A         2.9361   -1.3107   -4.6613 O.3       1 ACP        -0.7947
     13 O5'         2.5233   -1.6622   -2.1894 O.3       1 ACP        -0.5846
     14 C5'         2.2816   -0.2918   -1.9206 C.3       1 ACP         0.2005
     15 C4'         2.7248    0.0226   -0.4980 C.3       1 ACP         0.0711
     16 O4'         2.4697    1.4219   -0.2462 O.3       1 ACP        -0.4064
     17 C3'         1.9404   -0.7419    0.5596 C.3       1 ACP         0.0975
     18 O3'         2.7418   -0.8086    1.7389 O.3       1 ACP        -0.5957
     19 C2'         0.7477    0.1630    0.7858 C.3       1 ACP         0.1195
     20 O2'         0.1373   -0.0577    2.0407 O.3       1 ACP        -0.5845
     21 C1'         1.3733    1.5427    0.6747 C.3       1 ACP         0.4064
     22 N9          0.4520    2.5240    0.1767 N.pl3     1 ACP        -0.5630
     23 C8         -0.8602    2.5861    0.3496 C.ar      1 ACP         0.2808
     24 N7         -1.4308    3.6326   -0.2443 N.pl3     1 ACP        -0.5040
     25 C5         -0.4080    4.2856   -0.8394 C.ar      1 ACP        -0.2807
     26 C6         -0.3432    5.4196   -1.5943 C.ar      1 ACP         0.7712
     27 N6         -1.5276    6.1333   -1.8702 N.pl3     1 ACP        -0.9461
     28 N1          0.8395    5.8603   -2.0764 N.ar      1 ACP        -0.7457
     29 C2          1.9319    5.1095   -1.7617 C.ar      1 ACP         0.7201
     30 N3          1.9773    3.9761   -1.0249 N.ar      1 ACP        -0.6849
     31 C4          0.7724    3.6031   -0.5836 C.ar      1 ACP         0.6369
     32 HOG2        7.7586    0.9776   -6.2368 H         1 ACP         0.4781
     33 HOG3        6.5201   -1.5920   -7.5315 H         1 ACP         0.4781
     34 H3B1        3.9159    0.9175   -6.1694 H         1 ACP         0.1236
     35 H3B2        4.4330    0.0489   -7.6112 H         1 ACP         0.1236
     36 HOA2       -0.0865   -2.2971   -3.2819 H         1 ACP         0.4716
     37 H5'1        2.8428    0.3150   -2.6387 H         1 ACP         0.0529
     38 H5'2        1.2124   -0.0896   -2.0417 H         1 ACP         0.0529
     39 H4'         3.8049   -0.1388   -0.4009 H         1 ACP         0.1213
     40 H3'         1.6783   -1.7629    0.2715 H         1 ACP         0.0524
     41 HO3'        2.2232   -1.2979    2.3953 H         1 ACP         0.4707
     42 H2'        -0.0011    0.0027    0.0003 H         1 ACP         0.0774
     43 HO2'       -0.1563   -0.9855    2.0596 H         1 ACP         0.4561
     44 H1'         1.7826    1.9024    1.6451 H         1 ACP         0.1559
     45 H8         -1.4217    1.8638    0.9164 H         1 ACP         0.2754
     46 HN61       -2.4023    5.7711   -1.5477 H         1 ACP         0.4584
     47 HN62       -1.4856    6.9379   -2.4627 H         1 ACP         0.4584
     48 H2          2.8789    5.4660   -2.1503 H         1 ACP         0.0892
     49 H49        -2.4129    3.8706   -0.2402 H         1 ACP         0.5039
@<TRIPOS>BOND
     1    1    2 2
     2    1    3 1
     3    1    4 1
     4    1    8 1
     5    3   32 1
     6    4   33 1
     7    5    6 2
     8    5    7 1
     9    5    8 1
    10    5   12 1
    11    8   34 1
    12    8   35 1
    13    9   10 2
    14    9   11 1
    15    9   12 1
    16    9   13 1
    17   11   36 1
    18   13   14 1
    19   14   15 1
    20   14   37 1
    21   14   38 1
    22   15   16 1
    23   15   17 1
    24   15   39 1
    25   16   21 1
    26   17   18 1
    27   17   19 1
    28   17   40 1
    29   18   41 1
    30   19   20 1
    31   19   21 1
    32   19   42 1
    33   20   43 1
    34   21   22 1
    35   21   44 1
    36   22   23 ar
    37   22   31 ar
    38   23   24 ar
    39   23   45 1
    40   24   25 ar
    41   24   49 1
    42   25   26 ar
    43   25   31 ar
    44   26   27 1
    45   26   28 ar
    46   27   46 1
    47   27   47 1
    48   28   29 ar
    49   29   30 ar
    50   29   48 1
    51   30   31 ar
@<TRIPOS>SUBSTRUCTURE
     1 ACP         1 GROUP 0 A     ****
@<TRIPOS>MOLECULE
[[5-(6-amino-7,8-dihydropurin-8-ylium-9-yl)-3,4-dihydroxy-tetrahydrofuran-2-yl]methoxy-hydroxy-phosphoryl]oxy-(phosphonomethyl)phosphinate
   49    51     1     0     0
SMALL
USER_CHARGES

@<TRIPOS>ATOM
      1 PG         -5.3245   -3.8587   -0.5549 P.3       1 ACP         1.6362
      2 O1G        -3.8599   -3.7547   -0.8570 O.2       1 ACP        -0.8691
      3 O2G        -6.2325   -2.6310   -1.0826 O.3       1 ACP        -0.8016
      4 O3G        -6.0647   -5.1642   -1.1530 O.3       1 ACP        -0.8016
      5 PB         -5.0849   -5.2831    2.3081 P.3       1 ACP         1.4874
      6 O1B        -5.6037   -6.5912    1.7573 O.co2     1 ACP        -0.8240
      7 O2B        -5.3388   -4.8520    3.7340 O.co2     1 ACP        -0.8240
      8 C3B        -5.7163   -3.9370    1.2078 C.3       1 ACP        -0.6510
      9 PA         -2.2456   -6.0745    2.3775 P.3       1 ACP         1.7966
     10 O1A        -2.3396   -7.4922    1.8928 O.2       1 ACP        -0.8436
     11 O2A        -2.1704   -5.9223    3.9864 O.3       1 ACP        -0.8190
     12 O3A        -3.4978   -5.1381    1.9641 O.3       1 ACP        -0.7947
     13 O5'        -0.9731   -5.2421    1.8246 O.3       1 ACP        -0.5846
     14 C5'        -0.7840   -3.8935    2.2172 C.3       1 ACP         0.2005
     15 C4'        -0.0724   -3.1466    1.1027 C.3       1 ACP         0.0711
     16 O4'        -0.8674   -3.1929   -0.0945 O.3       1 ACP        -0.4064
     17 C3'         0.1338   -1.6715    1.4027 C.3       1 ACP         0.0975
     18 O3'         1.2893   -1.4445    2.1808 O.3       1 ACP        -0.5957
     19 C2'         0.2158   -1.0724    0.0128 C.3       1 ACP         0.1195
     20 O2'         1.5141   -1.2448   -0.5513 O.3       1 ACP        -0.5845
     21 C1'        -0.7897   -1.9176   -0.7583 C.3       1 ACP         0.4064
     22 N9         -2.1040   -1.3333   -0.7704 N.pl3     1 ACP        -0.5630
     23 C8         -2.8739   -1.0133    0.2593 C.ar      1 ACP         0.2808
     24 N7         -4.0439   -0.4818   -0.0902 N.pl3     1 ACP        -0.5040
     25 C5         -4.0184   -0.4615   -1.4414 C.ar      1 ACP        -0.2807
     26 C6         -4.9120   -0.0399   -2.3814 C.ar      1 ACP         0.7712
     27 N6         -6.1459    0.5018   -1.9665 N.pl3     1 ACP        -0.9461
     28 N1         -4.6250   -0.1374   -3.6981 N.ar      1 ACP        -0.7457
     29 C2         -3.4114   -0.6729   -4.0088 C.ar      1 ACP         0.7201
     30 N3         -2.4579   -1.1190   -3.1595 N.ar      1 ACP        -0.6849
     31 C4         -2.8124   -0.9904   -1.8776 C.ar      1 ACP         0.6369
     32 HOG2       -7.1984   -2.6468   -0.9126 H         1 ACP         0.4781
     33 HOG3       -6.0670   -5.3064   -2.1236 H         1 ACP         0.4781
     34 H3B1       -5.3737   -2.9970    1.6548 H         1 ACP         0.1236
     35 H3B2       -6.8079   -3.9561    1.3031 H         1 ACP         0.1236
     36 HOA2       -2.9109   -6.2660    4.5303 H         1 ACP         0.4716
     37 H5'1       -1.7611   -3.4417    2.4168 H         1 ACP         0.0529
     38 H5'2       -0.1868   -3.8712    3.1345 H         1 ACP         0.0529
     39 H4'         0.8886   -3.6448    0.8780 H         1 ACP         0.1213
     40 H3'        -0.7374   -1.2358    1.9870 H         1 ACP         0.0524
     41 HO3'        1.1626   -1.9325    3.0084 H         1 ACP         0.4707
     42 H2'        -0.0384   -0.0310    0.0096 H         1 ACP         0.0774
     43 HO2'        1.4998   -0.8412   -1.4369 H         1 ACP         0.4561
     44 H1'        -0.4769   -2.1002   -1.8093 H         1 ACP         0.1559
     45 H8         -2.5891   -1.1636    1.2862 H         1 ACP         0.2754
     46 HN61       -6.3657    0.5248   -0.9911 H         1 ACP         0.4584
     47 HN62       -6.8193    0.7669   -2.6568 H         1 ACP         0.4584
     48 H2         -3.1848   -0.7497   -5.0660 H         1 ACP         0.0892
     49 H49        -4.7768   -0.1684    0.5309 H         1 ACP         0.5039
@<TRIPOS>BOND
     1    1    2 2
     2    1    3 1
     3    1    4 1
     4    1    8 1
     5    3   32 1
     6    4   33 1
     7    5    6 2
     8    5    7 1
     9    5    8 1
    10    5   12 1
    11    8   34 1
    12    8   35 1
    13    9   10 2
    14    9   11 1
    15    9   12 1
    16    9   13 1
    17   11   36 1
    18   13   14 1
    19   14   15 1
    20   14   37 1
    21   14   38 1
    22   15   16 1
    23   15   17 1
    24   15   39 1
    25   16   21 1
    26   17   18 1
    27   17   19 1
    28   17   40 1
    29   18   41 1
    30   19   20 1
    31   19   21 1
    32   19   42 1
    33   20   43 1
    34   21   22 1
    35   21   44 1
    36   22   23 ar
    37   22   31 ar
    38   23   24 ar
    39   23   45 1
    40   24   25 ar
    41   24   49 1
    42   25   26 ar
    43   25   31 ar
    44   26   27 1
    45   26   28 ar
    46   27   46 1
    47   27   47 1
    48   28   29 ar
    49   29   30 ar
    50   29   48 1
    51   30   31 ar
@<TRIPOS>SUBSTRUCTURE
     1 ACP         1 GROUP 0 A     ****
@<TRIPOS>MOLECULE
[[5-(6-amino-7,8-dihydropurin-8-ylium-9-yl)-3,4-dihydroxy-tetrahydrofuran-2-yl]methoxy-hydroxy-phosphoryl]oxy-(phosphonomethyl)phosphinate
   49    51     1     0     0
SMALL
USER_CHARGES

@<TRIPOS>ATOM
      1 PG          0.8096   -4.3160    6.8486 P.3       1 ACP         1.6362
      2 O1G         1.2041   -4.1005    5.4185 O.2       1 ACP        -0.8691
      3 O2G         0.8233   -5.8517    7.3500 O.3       1 ACP        -0.8016
      4 O3G         1.7200   -3.5505    7.9418 O.3       1 ACP        -0.8016
      5 PB         -2.3649   -4.4511    6.4156 P.3       1 ACP         1.4874
      6 O1B        -3.5659   -3.7517    7.0088 O.co2     1 ACP        -0.8240
      7 O2B        -2.2273   -5.9559    6.4158 O.co2     1 ACP        -0.8240
      8 C3B        -0.8638   -3.7634    7.2496 C.3       1 ACP        -0.6510
      9 PA         -3.0212   -3.8715    3.6003 P.3       1 ACP         1.7966
     10 O1A        -4.3226   -3.1408    3.7625 O.2       1 ACP        -0.8436
     11 O2A        -3.1769   -5.4412    3.2407 O.3       1 ACP        -0.8190
     12 O3A        -2.0826   -3.8733    4.9174 O.3       1 ACP        -0.7947
     13 O5'        -2.0397   -3.2817    2.4572 O.3       1 ACP        -0.5846
     14 C5'        -0.7840   -3.8935    2.2172 C.3       1 ACP         0.2005
     15 C4'        -0.0724   -3.1466    1.1027 C.3       1 ACP         0.0711
     16 O4'        -0.8674   -3.1929   -0.0945 O.3       1 ACP        -0.4064
     17 C3'         0.1338   -1.6715    1.4027 C.3       1 ACP         0.0975
     18 O3'         1.2893   -1.4445    2.1808 O.3       1 ACP        -0.5957
     19 C2'         0.2158   -1.0724    0.0128 C.3       1 ACP         0.1195
     20 O2'         1.5141   -1.2448   -0.5513 O.3       1 ACP        -0.5845
     21 C1'        -0.7897   -1.9176   -0.7583 C.3       1 ACP         0.4064
     22 N9         -2.1040   -1.3333   -0.7704 N.pl3     1 ACP        -0.5630
     23 C8         -3.2304   -1.8262   -0.2767 C.ar      1 ACP         0.2808
     24 N7         -4.2847   -1.0309   -0.4481 N.pl3     1 ACP        -0.5040
     25 C5         -3.7951    0.0479   -1.0985 C.ar      1 ACP        -0.2807
     26 C6         -4.3691    1.1983   -1.5536 C.ar      1 ACP         0.7712
     27 N6         -5.7501    1.4047   -1.3573 N.pl3     1 ACP        -0.9461
     28 N1         -3.6289    2.1345   -2.1869 N.ar      1 ACP        -0.7457
     29 C2         -2.3041    1.8525   -2.3333 C.ar      1 ACP         0.7201
     30 N3         -1.6387    0.7492   -1.9218 N.ar      1 ACP        -0.6849
     31 C4         -2.4348   -0.1293   -1.3053 C.ar      1 ACP         0.6369
     32 HOG2        0.5736   -6.0513    8.2774 H         1 ACP         0.4781
     33 HOG3        2.6797   -3.7492    7.9842 H         1 ACP         0.4781
     34 H3B1       -1.0101   -3.9345    8.3221 H         1 ACP         0.1236
     35 H3B2       -0.9006   -2.6795    7.0917 H         1 ACP         0.1236
     36 HOA2       -3.6470   -5.6948    2.4181 H         1 ACP         0.4716
     37 H5'1       -0.1919   -3.8613    3.1376 H         1 ACP         0.0529
     38 H5'2       -0.9466   -4.9385    1.9341 H         1 ACP         0.0529
     39 H4'         0.8886   -3.6448    0.8780 H         1 ACP         0.1213
     40 H3'        -0.7374   -1.2358    1.9870 H         1 ACP         0.0524
     41 HO3'        1.3408   -0.4870    2.3219 H         1 ACP         0.4707
     42 H2'        -0.0384   -0.0310    0.0096 H         1 ACP         0.0774
     43 HO2'        2.1463   -0.7958    0.0370 H         1 ACP         0.4561
     44 H1'        -0.4769   -2.1002   -1.8093 H         1 ACP         0.1559
     45 H8         -3.2974   -2.7789    0.2194 H         1 ACP         0.2754
     46 HN61       -6.2956    0.6838   -0.9296 H         1 ACP         0.4584
     47 HN62       -6.1788    2.2266   -1.7327 H         1 ACP         0.4584
     48 H2         -1.7135    2.6057   -2.8421 H         1 ACP         0.0892
     49 H49        -5.2337   -1.2102   -0.1507 H         1 ACP         0.5039
@<TRIPOS>BOND
     1    1    2 2
     2    1    3 1
     3    1    4 1
     4    1    8 1
     5    3   32 1
     6    4   33 1
     7    5    6 2
     8    5    7 1
     9    5    8 1
    10    5   12 1
    11    8   34 1
    12    8   35 1
    13    9   10 2
    14    9   11 1
    15    9   12 1
    16    9   13 1
    17   11   36 1
    18   13   14 1
    19   14   15 1
    20   14   37 1
    21   14   38 1
    22   15   16 1
    23   15   17 1
    24   15   39 1
    25   16   21 1
    26   17   18 1
    27   17   19 1
    28   17   40 1
    29   18   41 1
    30   19   20 1
    31   19   21 1
    32   19   42 1
    33   20   43 1
    34   21   22 1
    35   21   44 1
    36   22   23 ar
    37   22   31 ar
    38   23   24 ar
    39   23   45 1
    40   24   25 ar
    41   24   49 1
    42   25   26 ar
    43   25   31 ar
    44   26   27 1
    45   26   28 ar
    46   27   46 1
    47   27   47 1
    48   28   29 ar
    49   29   30 ar
    50   29   48 1
    51   30   31 ar
@<TRIPOS>SUBSTRUCTURE
     1 ACP         1 GROUP 0 A     ****
@<TRIPOS>MOLECULE
[[5-(6-amino-7,8-dihydropurin-8-ylium-9-yl)-3,4-dihydroxy-tetrahydrofuran-2-yl]methoxy-hydroxy-phosphoryl]oxy-(phosphonomethyl)phosphinate
   49    51     1     0     0
SMALL
USER_CHARGES

@<TRIPOS>ATOM
      1 PG          6.4218    0.4044   -6.1916 P.3       1 ACP         1.6362
      2 O1G         5.1678    0.1324   -6.9669 O.2       1 ACP        -0.8691
      3 O2G         7.6384   -0.6260   -6.4530 O.3       1 ACP        -0.8016
      4 O3G         7.0903    1.8538   -6.4407 O.3       1 ACP        -0.8016
      5 PB          5.6296   -1.1607   -3.5072 P.3       1 ACP         1.4874
      6 O1B         5.5803   -0.8227   -2.0352 O.co2     1 ACP        -0.8240
      7 O2B         6.4275   -2.3284   -4.0395 O.co2     1 ACP        -0.8240
      8 C3B         6.2124    0.3525   -4.3971 C.3       1 ACP        -0.6510
      9 PA          2.8566   -2.1440   -3.6977 P.3       1 ACP         1.7966
     10 O1A         3.0940   -3.6176   -3.8586 O.2       1 ACP        -0.8436
     11 O2A         1.6428   -1.5611   -4.5945 O.3       1 ACP        -0.8190
     12 O3A         4.1138   -1.2120   -4.1056 O.3       1 ACP        -0.7947
     13 O5'         2.5233   -1.6622   -2.1894 O.3       1 ACP        -0.5846
     14 C5'         2.2816   -0.2918   -1.9206 C.3       1 ACP         0.2005
     15 C4'         2.7248    0.0226   -0.4980 C.3       1 ACP         0.0711
     16 O4'         2.4697    1.4219   -0.2462 O.3       1 ACP        -0.4064
     17 C3'         1.9404   -0.7419    0.5596 C.3       1 ACP         0.0975
     18 O3'         2.7418   -0.8086    1.7389 O.3       1 ACP        -0.5957
     19 C2'         0.7477    0.1630    0.7858 C.3       1 ACP         0.1195
     20 O2'         0.1373   -0.0577    2.0407 O.3       1 ACP        -0.5845
     21 C1'         1.3733    1.5427    0.6747 C.3       1 ACP         0.4064
     22 N9          0.4520    2.5240    0.1767 N.pl3     1 ACP        -0.5630
     23 C8          0.5305    3.2394   -0.9358 C.ar      1 ACP         0.2808
     24 N7         -0.4966    4.0680   -1.1145 N.pl3     1 ACP        -0.5040
     25 C5         -1.2879    3.8664   -0.0375 C.ar      1 ACP        -0.2807
     26 C6         -2.4754    4.4084    0.3577 C.ar      1 ACP         0.7712
     27 N6         -3.0892    5.3882   -0.4495 N.pl3     1 ACP        -0.9461
     28 N1         -3.0632    4.0158    1.5092 N.ar      1 ACP        -0.7457
     29 C2         -2.4008    3.0654    2.2262 C.ar      1 ACP         0.7201
     30 N3         -1.2259    2.4663    1.9260 N.ar      1 ACP        -0.6849
     31 C4         -0.7062    2.9047    0.7757 C.ar      1 ACP         0.6369
     32 HOG2        7.5055   -1.5780   -6.2573 H         1 ACP         0.4781
     33 HOG3        7.3788    2.0948   -7.3468 H         1 ACP         0.4781
     34 H3B1        7.1810    0.6087   -3.9533 H         1 ACP         0.1236
     35 H3B2        5.5146    1.1518   -4.1227 H         1 ACP         0.1236
     36 HOA2        0.7398   -1.9201   -4.4610 H         1 ACP         0.4716
     37 H5'1        2.8428    0.3150   -2.6387 H         1 ACP         0.0529
     38 H5'2        1.2124   -0.0896   -2.0417 H         1 ACP         0.0529
     39 H4'         3.8049   -0.1388   -0.4009 H         1 ACP         0.1213
     40 H3'         1.6783   -1.7629    0.2715 H         1 ACP         0.0524
     41 HO3'        2.2232   -1.2979    2.3953 H         1 ACP         0.4707
     42 H2'        -0.0011    0.0027    0.0003 H         1 ACP         0.0774
     43 HO2'       -0.1563   -0.9855    2.0596 H         1 ACP         0.4561
     44 H1'         1.7826    1.9024    1.6451 H         1 ACP         0.1559
     45 H8          1.3437    3.1645   -1.6367 H         1 ACP         0.2754
     46 HN61       -2.6210    5.7042   -1.2748 H         1 ACP         0.4584
     47 HN62       -3.9356    5.8187   -0.1356 H         1 ACP         0.4584
     48 H2         -2.8752    2.7532    3.1495 H         1 ACP         0.0892
     49 H49        -0.6372    4.7004   -1.8900 H         1 ACP         0.5039
@<TRIPOS>BOND
     1    1    2 2
     2    1    3 1
     3    1    4 1
     4    1    8 1
     5    3   32 1
     6    4   33 1
     7    5    6 2
     8    5    7 1
     9    5    8 1
    10    5   12 1
    11    8   34 1
    12    8   35 1
    13    9   10 2
    14    9   11 1
    15    9   12 1
    16    9   13 1
    17   11   36 1
    18   13   14 1
    19   14   15 1
    20   14   37 1
    21   14   38 1
    22   15   16 1
    23   15   17 1
    24   15   39 1
    25   16   21 1
    26   17   18 1
    27   17   19 1
    28   17   40 1
    29   18   41 1
    30   19   20 1
    31   19   21 1
    32   19   42 1
    33   20   43 1
    34   21   22 1
    35   21   44 1
    36   22   23 ar
    37   22   31 ar
    38   23   24 ar
    39   23   45 1
    40   24   25 ar
    41   24   49 1
    42   25   26 ar
    43   25   31 ar
    44   26   27 1
    45   26   28 ar
    46   27   46 1
    47   27   47 1
    48   28   29 ar
    49   29   30 ar
    50   29   48 1
    51   30   31 ar
@<TRIPOS>SUBSTRUCTURE
     1 ACP         1 GROUP 0 A     ****
@<TRIPOS>MOLECULE
[[5-(6-amino-7,8-dihydropurin-8-ylium-9-yl)-3,4-dihydroxy-tetrahydrofuran-2-yl]methoxy-hydroxy-phosphoryl]oxy-(phosphonomethyl)phosphinate
   49    51     1     0     0
SMALL
USER_CHARGES

@<TRIPOS>ATOM
      1 PG         -3.7830   -7.5947    3.4317 P.3       1 ACP         1.6362
      2 O1G        -5.1764   -7.0441    3.3783 O.2       1 ACP        -0.8691
      3 O2G        -3.6450   -9.1708    3.1046 O.3       1 ACP        -0.8016
      4 O3G        -2.7253   -6.9030    2.4255 O.3       1 ACP        -0.8016
      5 PB         -2.6891   -5.7945    5.8495 P.3       1 ACP         1.4874
      6 O1B        -2.0044   -6.0613    7.1700 O.co2     1 ACP        -0.8240
      7 O2B        -3.9785   -5.0124    5.7540 O.co2     1 ACP        -0.8240
      8 C3B        -2.9813   -7.4336    5.0435 C.3       1 ACP        -0.6510
      9 PA         -0.6978   -3.8657    4.8460 P.3       1 ACP         1.7966
     10 O1A         0.2441   -3.8050    6.0134 O.2       1 ACP        -0.8436
     11 O2A        -1.7814   -2.6653    4.7989 O.3       1 ACP        -0.8190
     12 O3A        -1.6064   -5.2022    4.7840 O.3       1 ACP        -0.7947
     13 O5'         0.0089   -3.8407    3.3906 O.3       1 ACP        -0.5846
     14 C5'        -0.7840   -3.8935    2.2172 C.3       1 ACP         0.2005
     15 C4'        -0.0724   -3.1466    1.1027 C.3       1 ACP         0.0711
     16 O4'        -0.8674   -3.1929   -0.0945 O.3       1 ACP        -0.4064
     17 C3'         0.1338   -1.6715    1.4027 C.3       1 ACP         0.0975
     18 O3'         1.2893   -1.4445    2.1808 O.3       1 ACP        -0.5957
     19 C2'         0.2158   -1.0724    0.0128 C.3       1 ACP         0.1195
     20 O2'         1.5141   -1.2448   -0.5513 O.3       1 ACP        -0.5845
     21 C1'        -0.7897   -1.9176   -0.7583 C.3       1 ACP         0.4064
     22 N9         -2.1040   -1.3333   -0.7704 N.pl3     1 ACP        -0.5630
     23 C8         -3.2304   -1.8262   -0.2767 C.ar      1 ACP         0.2808
     24 N7         -4.2847   -1.0309   -0.4481 N.pl3     1 ACP        -0.5040
     25 C5         -3.7951    0.0479   -1.0985 C.ar      1 ACP        -0.2807
     26 C6         -4.3691    1.1983   -1.5536 C.ar      1 ACP         0.7712
     27 N6         -5.7501    1.4047   -1.3573 N.pl3     1 ACP        -0.9461
     28 N1         -3.6289    2.1345   -2.1869 N.ar      1 ACP        -0.7457
     29 C2         -2.3041    1.8525   -2.3333 C.ar      1 ACP         0.7201
     30 N3         -1.6387    0.7492   -1.9218 N.ar      1 ACP        -0.6849
     31 C4         -2.4348   -0.1293   -1.3053 C.ar      1 ACP         0.6369
     32 HOG2       -3.9388   -9.5022    2.2294 H         1 ACP         0.4781
     33 HOG3       -1.7980   -7.2229    2.4172 H         1 ACP         0.4781
     34 H3B1       -3.5732   -8.0186    5.7564 H         1 ACP         0.1236
     35 H3B2       -1.9993   -7.9151    4.9736 H         1 ACP         0.1236
     36 HOA2       -1.4616   -1.7397    4.7438 H         1 ACP         0.4716
     37 H5'1       -0.9362   -4.9413    1.9386 H         1 ACP         0.0529
     38 H5'2       -1.7563   -3.4348    2.4248 H         1 ACP         0.0529
     39 H4'         0.8886   -3.6448    0.8780 H         1 ACP         0.1213
     40 H3'        -0.7374   -1.2358    1.9870 H         1 ACP         0.0524
     41 HO3'        1.1626   -1.9325    3.0084 H         1 ACP         0.4707
     42 H2'        -0.0384   -0.0310    0.0096 H         1 ACP         0.0774
     43 HO2'        2.1463   -0.7958    0.0370 H         1 ACP         0.4561
     44 H1'        -0.4769   -2.1002   -1.8093 H         1 ACP         0.1559
     45 H8         -3.2974   -2.7789    0.2194 H         1 ACP         0.2754
     46 HN61       -6.2956    0.6838   -0.9296 H         1 ACP         0.4584
     47 HN62       -6.1788    2.2266   -1.7327 H         1 ACP         0.4584
     48 H2         -1.7135    2.6057   -2.8421 H         1 ACP         0.0892
     49 H49        -5.2337   -1.2102   -0.1507 H         1 ACP         0.5039
@<TRIPOS>BOND
     1    1    2 2
     2    1    3 1
     3    1    4 1
     4    1    8 1
     5    3   32 1
     6    4   33 1
     7    5    6 2
     8    5    7 1
     9    5    8 1
    10    5   12 1
    11    8   34 1
    12    8   35 1
    13    9   10 2
    14    9   11 1
    15    9   12 1
    16    9   13 1
    17   11   36 1
    18   13   14 1
    19   14   15 1
    20   14   37 1
    21   14   38 1
    22   15   16 1
    23   15   17 1
    24   15   39 1
    25   16   21 1
    26   17   18 1
    27   17   19 1
    28   17   40 1
    29   18   41 1
    30   19   20 1
    31   19   21 1
    32   19   42 1
    33   20   43 1
    34   21   22 1
    35   21   44 1
    36   22   23 ar
    37   22   31 ar
    38   23   24 ar
    39   23   45 1
    40   24   25 ar
    41   24   49 1
    42   25   26 ar
    43   25   31 ar
    44   26   27 1
    45   26   28 ar
    46   27   46 1
    47   27   47 1
    48   28   29 ar
    49   29   30 ar
    50   29   48 1
    51   30   31 ar
@<TRIPOS>SUBSTRUCTURE
     1 ACP         1 GROUP 0 A     ****
@<TRIPOS>MOLECULE
[[5-(6-amino-7,8-dihydropurin-8-ylium-9-yl)-3,4-dihydroxy-tetrahydrofuran-2-yl]methoxy-hydroxy-phosphoryl]oxy-(phosphonomethyl)phosphinate
   49    51     1     0     0
SMALL
USER_CHARGES

@<TRIPOS>ATOM
      1 PG          3.7555    0.2303   -7.7018 P.3       1 ACP         1.6362
      2 O1G         4.4743   -0.7415   -8.5886 O.2       1 ACP        -0.8691
      3 O2G         3.7394    1.7614   -8.2169 O.3       1 ACP        -0.8016
      4 O3G         2.1965   -0.0977   -7.4341 O.3       1 ACP        -0.8016
      5 PB          4.5355   -1.0840   -4.8827 P.3       1 ACP         1.4874
      6 O1B         5.1584   -0.5907   -3.5973 O.co2     1 ACP        -0.8240
      7 O2B         5.1110   -2.2419   -5.6645 O.co2     1 ACP        -0.8240
      8 C3B         4.4392    0.3607   -6.0338 C.3       1 ACP        -0.6510
      9 PA          2.1469   -2.2812   -3.6362 P.3       1 ACP         1.7966
     10 O1A         2.4486   -3.7424   -3.8027 O.2       1 ACP        -0.8436
     11 O2A         0.5931   -1.8902   -3.8605 O.3       1 ACP        -0.8190
     12 O3A         2.9361   -1.3107   -4.6613 O.3       1 ACP        -0.7947
     13 O5'         2.5233   -1.6622   -2.1894 O.3       1 ACP        -0.5846
     14 C5'         2.2816   -0.2918   -1.9206 C.3       1 ACP         0.2005
     15 C4'         2.7248    0.0226   -0.4980 C.3       1 ACP         0.0711
     16 O4'         2.4697    1.4219   -0.2462 O.3       1 ACP        -0.4064
     17 C3'         1.9404   -0.7419    0.5596 C.3       1 ACP         0.0975
     18 O3'         2.7418   -0.8086    1.7389 O.3       1 ACP        -0.5957
     19 C2'         0.7477    0.1630    0.7858 C.3       1 ACP         0.1195
     20 O2'         0.1373   -0.0577    2.0407 O.3       1 ACP        -0.5845
     21 C1'         1.3733    1.5427    0.6747 C.3       1 ACP         0.4064
     22 N9          0.4520    2.5240    0.1767 N.pl3     1 ACP        -0.5630
     23 C8         -0.8602    2.5861    0.3496 C.ar      1 ACP         0.2808
     24 N7         -1.4308    3.6326   -0.2443 N.pl3     1 ACP        -0.5040
     25 C5         -0.4080    4.2856   -0.8394 C.ar      1 ACP        -0.2807
     26 C6         -0.3432    5.4196   -1.5943 C.ar      1 ACP         0.7712
     27 N6         -1.5276    6.1333   -1.8702 N.pl3     1 ACP        -0.9461
     28 N1          0.8395    5.8603   -2.0764 N.ar      1 ACP        -0.7457
     29 C2          1.9319    5.1095   -1.7617 C.ar      1 ACP         0.7201
     30 N3          1.9773    3.9761   -1.0249 N.ar      1 ACP        -0.6849
     31 C4          0.7724    3.6031   -0.5836 C.ar      1 ACP         0.6369
     32 HOG2        3.3288    1.9671   -9.0837 H         1 ACP         0.4781
     33 HOG3        1.6756    0.5043   -6.8609 H         1 ACP         0.4781
     34 H3B1        5.4645    0.7338   -6.1354 H         1 ACP         0.1236
     35 H3B2        3.8702    1.1325   -5.5030 H         1 ACP         0.1236
     36 HOA2       -0.0865   -2.2971   -3.2819 H         1 ACP         0.4716
     37 H5'1        2.8428    0.3150   -2.6387 H         1 ACP         0.0529
     38 H5'2        1.2124   -0.0896   -2.0417 H         1 ACP         0.0529
     39 H4'         3.8049   -0.1388   -0.4009 H         1 ACP         0.1213
     40 H3'         1.6783   -1.7629    0.2715 H         1 ACP         0.0524
     41 HO3'        2.2232   -1.2979    2.3953 H         1 ACP         0.4707
     42 H2'        -0.0011    0.0027    0.0003 H         1 ACP         0.0774
     43 HO2'       -0.1563   -0.9855    2.0596 H         1 ACP         0.4561
     44 H1'         1.7826    1.9024    1.6451 H         1 ACP         0.1559
     45 H8         -1.4217    1.8638    0.9164 H         1 ACP         0.2754
     46 HN61       -2.4023    5.7711   -1.5477 H         1 ACP         0.4584
     47 HN62       -1.4856    6.9379   -2.4627 H         1 ACP         0.4584
     48 H2          2.8789    5.4660   -2.1503 H         1 ACP         0.0892
     49 H49        -2.4129    3.8706   -0.2402 H         1 ACP         0.5039
@<TRIPOS>BOND
     1    1    2 2
     2    1    3 1
     3    1    4 1
     4    1    8 1
     5    3   32 1
     6    4   33 1
     7    5    6 2
     8    5    7 1
     9    5    8 1
    10    5   12 1
    11    8   34 1
    12    8   35 1
    13    9   10 2
    14    9   11 1
    15    9   12 1
    16    9   13 1
    17   11   36 1
    18   13   14 1
    19   14   15 1
    20   14   37 1
    21   14   38 1
    22   15   16 1
    23   15   17 1
    24   15   39 1
    25   16   21 1
    26   17   18 1
    27   17   19 1
    28   17   40 1
    29   18   41 1
    30   19   20 1
    31   19   21 1
    32   19   42 1
    33   20   43 1
    34   21   22 1
    35   21   44 1
    36   22   23 ar
    37   22   31 ar
    38   23   24 ar
    39   23   45 1
    40   24   25 ar
    41   24   49 1
    42   25   26 ar
    43   25   31 ar
    44   26   27 1
    45   26   28 ar
    46   27   46 1
    47   27   47 1
    48   28   29 ar
    49   29   30 ar
    50   29   48 1
    51   30   31 ar
@<TRIPOS>SUBSTRUCTURE
     1 ACP         1 GROUP 0 A     ****
@<TRIPOS>MOLECULE
[[5-(6-amino-7,8-dihydropurin-8-ylium-9-yl)-3,4-dihydroxy-tetrahydrofuran-2-yl]methoxy-hydroxy-phosphoryl]oxy-(phosphonomethyl)phosphinate
   49    51     1     0     0
SMALL
USER_CHARGES

@<TRIPOS>ATOM
      1 PG          6.0636    1.6907   -4.3567 P.3       1 ACP         1.6362
      2 O1G         5.4707    2.6167   -5.3757 O.2       1 ACP        -0.8691
      3 O2G         7.5273    2.1027   -3.8107 O.3       1 ACP        -0.8016
      4 O3G         5.1952    1.4961   -3.0085 O.3       1 ACP        -0.8016
      5 PB          4.8982   -1.0581   -5.5267 P.3       1 ACP         1.4874
      6 O1B         5.4808   -2.3930   -5.9293 O.co2     1 ACP        -0.8240
      7 O2B         4.0737   -0.2196   -6.4757 O.co2     1 ACP        -0.8240
      8 C3B         6.3000   -0.0035   -4.9402 C.3       1 ACP        -0.6510
      9 PA          2.8566   -2.1440   -3.6977 P.3       1 ACP         1.7966
     10 O1A         3.0940   -3.6176   -3.8586 O.2       1 ACP        -0.8436
     11 O2A         1.6428   -1.5611   -4.5945 O.3       1 ACP        -0.8190
     12 O3A         4.1138   -1.2120   -4.1056 O.3       1 ACP        -0.7947
     13 O5'         2.5233   -1.6622   -2.1894 O.3       1 ACP        -0.5846
     14 C5'         2.2816   -0.2918   -1.9206 C.3       1 ACP         0.2005
     15 C4'         2.7248    0.0226   -0.4980 C.3       1 ACP         0.0711
     16 O4'         2.4697    1.4219   -0.2462 O.3       1 ACP        -0.4064
     17 C3'         1.9404   -0.7419    0.5596 C.3       1 ACP         0.0975
     18 O3'         2.7418   -0.8086    1.7389 O.3       1 ACP        -0.5957
     19 C2'         0.7477    0.1630    0.7858 C.3       1 ACP         0.1195
     20 O2'         0.1373   -0.0577    2.0407 O.3       1 ACP        -0.5845
     21 C1'         1.3733    1.5427    0.6747 C.3       1 ACP         0.4064
     22 N9          0.4520    2.5240    0.1767 N.pl3     1 ACP        -0.5630
     23 C8         -0.8602    2.5861    0.3496 C.ar      1 ACP         0.2808
     24 N7         -1.4308    3.6326   -0.2443 N.pl3     1 ACP        -0.5040
     25 C5         -0.4080    4.2856   -0.8394 C.ar      1 ACP        -0.2807
     26 C6         -0.3432    5.4196   -1.5943 C.ar      1 ACP         0.7712
     27 N6         -1.5276    6.1333   -1.8702 N.pl3     1 ACP        -0.9461
     28 N1          0.8395    5.8603   -2.0764 N.ar      1 ACP        -0.7457
     29 C2          1.9319    5.1095   -1.7617 C.ar      1 ACP         0.7201
     30 N3          1.9773    3.9761   -1.0249 N.ar      1 ACP        -0.6849
     31 C4          0.7724    3.6031   -0.5836 C.ar      1 ACP         0.6369
     32 HOG2        7.6408    2.9666   -3.3602 H         1 ACP         0.4781
     33 HOG3        5.5346    0.9011   -2.3062 H         1 ACP         0.4781
     34 H3B1        7.0128    0.0398   -5.7714 H         1 ACP         0.1236
     35 H3B2        6.7844   -0.5660   -4.1339 H         1 ACP         0.1236
     36 HOA2        0.7398   -1.9201   -4.4610 H         1 ACP         0.4716
     37 H5'1        2.8428    0.3150   -2.6387 H         1 ACP         0.0529
     38 H5'2        1.2124   -0.0896   -2.0417 H         1 ACP         0.0529
     39 H4'         3.8049   -0.1388   -0.4009 H         1 ACP         0.1213
     40 H3'         1.6783   -1.7629    0.2715 H         1 ACP         0.0524
     41 HO3'        2.2232   -1.2979    2.3953 H         1 ACP         0.4707
     42 H2'        -0.0011    0.0027    0.0003 H         1 ACP         0.0774
     43 HO2'       -0.1563   -0.9855    2.0596 H         1 ACP         0.4561
     44 H1'         1.7826    1.9024    1.6451 H         1 ACP         0.1559
     45 H8         -1.4217    1.8638    0.9164 H         1 ACP         0.2754
     46 HN61       -2.4023    5.7711   -1.5477 H         1 ACP         0.4584
     47 HN62       -1.4856    6.9379   -2.4627 H         1 ACP         0.4584
     48 H2          2.8789    5.4660   -2.1503 H         1 ACP         0.0892
     49 H49        -2.4129    3.8706   -0.2402 H         1 ACP         0.5039
@<TRIPOS>BOND
     1    1    2 2
     2    1    3 1
     3    1    4 1
     4    1    8 1
     5    3   32 1
     6    4   33 1
     7    5    6 2
     8    5    7 1
     9    5    8 1
    10    5   12 1
    11    8   34 1
    12    8   35 1
    13    9   10 2
    14    9   11 1
    15    9   12 1
    16    9   13 1
    17   11   36 1
    18   13   14 1
    19   14   15 1
    20   14   37 1
    21   14   38 1
    22   15   16 1
    23   15   17 1
    24   15   39 1
    25   16   21 1
    26   17   18 1
    27   17   19 1
    28   17   40 1
    29   18   41 1
    30   19   20 1
    31   19   21 1
    32   19   42 1
    33   20   43 1
    34   21   22 1
    35   21   44 1
    36   22   23 ar
    37   22   31 ar
    38   23   24 ar
    39   23   45 1
    40   24   25 ar
    41   24   49 1
    42   25   26 ar
    43   25   31 ar
    44   26   27 1
    45   26   28 ar
    46   27   46 1
    47   27   47 1
    48   28   29 ar
    49   29   30 ar
    50   29   48 1
    51   30   31 ar
@<TRIPOS>SUBSTRUCTURE
     1 ACP         1 GROUP 0 A     ****
@<TRIPOS>MOLECULE
[[5-(6-amino-7,8-dihydropurin-8-ylium-9-yl)-3,4-dihydroxy-tetrahydrofuran-2-yl]methoxy-hydroxy-phosphoryl]oxy-(phosphonomethyl)phosphinate
   49    51     1     0     0
SMALL
USER_CHARGES

@<TRIPOS>ATOM
      1 PG         -5.6363   -3.9070    3.0070 P.3       1 ACP         1.6362
      2 O1G        -5.8469   -3.2797    4.3522 O.2       1 ACP        -0.8691
      3 O2G        -6.8436   -3.7110    1.9515 O.3       1 ACP        -0.8016
      4 O3G        -4.3361   -3.3923    2.1980 O.3       1 ACP        -0.8016
      5 PB         -4.0269   -6.5050    3.9780 P.3       1 ACP         1.4874
      6 O1B        -4.1656   -7.9969    3.7811 O.co2     1 ACP        -0.8240
      7 O2B        -3.9816   -5.8742    5.3504 O.co2     1 ACP        -0.8240
      8 C3B        -5.4093   -5.6995    3.0498 C.3       1 ACP        -0.6510
      9 PA         -1.2164   -6.3318    3.1041 P.3       1 ACP         1.7966
     10 O1A        -0.9212   -7.7774    2.8272 O.2       1 ACP        -0.8436
     11 O2A        -0.7238   -5.8156    4.5561 O.3       1 ACP        -0.8190
     12 O3A        -2.7876   -5.9491    3.0762 O.3       1 ACP        -0.7947
     13 O5'        -0.5702   -5.2849    2.0531 O.3       1 ACP        -0.5846
     14 C5'        -0.7840   -3.8935    2.2172 C.3       1 ACP         0.2005
     15 C4'        -0.0724   -3.1466    1.1027 C.3       1 ACP         0.0711
     16 O4'        -0.8674   -3.1929   -0.0945 O.3       1 ACP        -0.4064
     17 C3'         0.1338   -1.6715    1.4027 C.3       1 ACP         0.0975
     18 O3'         1.2893   -1.4445    2.1808 O.3       1 ACP        -0.5957
     19 C2'         0.2158   -1.0724    0.0128 C.3       1 ACP         0.1195
     20 O2'         1.5141   -1.2448   -0.5513 O.3       1 ACP        -0.5845
     21 C1'        -0.7897   -1.9176   -0.7583 C.3       1 ACP         0.4064
     22 N9         -2.1040   -1.3333   -0.7704 N.pl3     1 ACP        -0.5630
     23 C8         -2.8739   -1.0133    0.2593 C.ar      1 ACP         0.2808
     24 N7         -4.0439   -0.4818   -0.0902 N.pl3     1 ACP        -0.5040
     25 C5         -4.0184   -0.4615   -1.4414 C.ar      1 ACP        -0.2807
     26 C6         -4.9120   -0.0399   -2.3814 C.ar      1 ACP         0.7712
     27 N6         -6.1459    0.5018   -1.9665 N.pl3     1 ACP        -0.9461
     28 N1         -4.6250   -0.1374   -3.6981 N.ar      1 ACP        -0.7457
     29 C2         -3.4114   -0.6729   -4.0088 C.ar      1 ACP         0.7201
     30 N3         -2.4579   -1.1190   -3.1595 N.ar      1 ACP        -0.6849
     31 C4         -2.8124   -0.9904   -1.8776 C.ar      1 ACP         0.6369
     32 HOG2       -7.1039   -2.8021    1.6904 H         1 ACP         0.4781
     33 HOG3       -4.1482   -3.7682    1.3116 H         1 ACP         0.4781
     34 H3B1       -6.3332   -6.1306    3.4515 H         1 ACP         0.1236
     35 H3B2       -5.3198   -6.0461    2.0140 H         1 ACP         0.1236
     36 HOA2        0.2301   -5.8662    4.7788 H         1 ACP         0.4716
     37 H5'1       -1.8600   -3.6935    2.1849 H         1 ACP         0.0529
     38 H5'2       -0.3935   -3.5870    3.1930 H         1 ACP         0.0529
     39 H4'         0.8886   -3.6448    0.8780 H         1 ACP         0.1213
     40 H3'        -0.7374   -1.2358    1.9870 H         1 ACP         0.0524
     41 HO3'        1.3408   -0.4870    2.3219 H         1 ACP         0.4707
     42 H2'        -0.0384   -0.0310    0.0096 H         1 ACP         0.0774
     43 HO2'        2.1463   -0.7958    0.0370 H         1 ACP         0.4561
     44 H1'        -0.4769   -2.1002   -1.8093 H         1 ACP         0.1559
     45 H8         -2.5891   -1.1636    1.2862 H         1 ACP         0.2754
     46 HN61       -6.3657    0.5248   -0.9911 H         1 ACP         0.4584
     47 HN62       -6.8193    0.7669   -2.6568 H         1 ACP         0.4584
     48 H2         -3.1848   -0.7497   -5.0660 H         1 ACP         0.0892
     49 H49        -4.7768   -0.1684    0.5309 H         1 ACP         0.5039
@<TRIPOS>BOND
     1    1    2 2
     2    1    3 1
     3    1    4 1
     4    1    8 1
     5    3   32 1
     6    4   33 1
     7    5    6 2
     8    5    7 1
     9    5    8 1
    10    5   12 1
    11    8   34 1
    12    8   35 1
    13    9   10 2
    14    9   11 1
    15    9   12 1
    16    9   13 1
    17   11   36 1
    18   13   14 1
    19   14   15 1
    20   14   37 1
    21   14   38 1
    22   15   16 1
    23   15   17 1
    24   15   39 1
    25   16   21 1
    26   17   18 1
    27   17   19 1
    28   17   40 1
    29   18   41 1
    30   19   20 1
    31   19   21 1
    32   19   42 1
    33   20   43 1
    34   21   22 1
    35   21   44 1
    36   22   23 ar
    37   22   31 ar
    38   23   24 ar
    39   23   45 1
    40   24   25 ar
    41   24   49 1
    42   25   26 ar
    43   25   31 ar
    44   26   27 1
    45   26   28 ar
    46   27   46 1
    47   27   47 1
    48   28   29 ar
    49   29   30 ar
    50   29   48 1
    51   30   31 ar
@<TRIPOS>SUBSTRUCTURE
     1 ACP         1 GROUP 0 A     ****
@<TRIPOS>MOLECULE
[[5-(6-amino-7,8-dihydropurin-8-ylium-9-yl)-3,4-dihydroxy-tetrahydrofuran-2-yl]methoxy-hydroxy-phosphoryl]oxy-(phosphonomethyl)phosphinate
   49    51     1     0     0
SMALL
USER_CHARGES

@<TRIPOS>ATOM
      1 PG         -0.3431   -6.4929    6.3665 P.3       1 ACP         1.6362
      2 O1G        -0.2146   -7.9284    5.9538 O.2       1 ACP        -0.8691
      3 O2G         0.3983   -6.0968    7.7462 O.3       1 ACP        -0.8016
      4 O3G         0.2235   -5.4135    5.3064 O.3       1 ACP        -0.8016
      5 PB         -3.3285   -5.9943    5.3074 P.3       1 ACP         1.4874
      6 O1B        -4.6115   -5.4649    5.9050 O.co2     1 ACP        -0.8240
      7 O2B        -3.2452   -7.3539    4.6531 O.co2     1 ACP        -0.8240
      8 C3B        -2.0444   -5.9468    6.6379 C.3       1 ACP        -0.6510
      9 PA         -3.2824   -4.1691    2.9924 P.3       1 ACP         1.7966
     10 O1A        -4.5601   -3.4114    3.2096 O.2       1 ACP        -0.8436
     11 O2A        -3.4011   -5.3907    1.9384 O.3       1 ACP        -0.8190
     12 O3A        -2.6815   -4.8688    4.3210 O.3       1 ACP        -0.7947
     13 O5'        -2.0397   -3.2817    2.4572 O.3       1 ACP        -0.5846
     14 C5'        -0.7840   -3.8935    2.2172 C.3       1 ACP         0.2005
     15 C4'        -0.0724   -3.1466    1.1027 C.3       1 ACP         0.0711
     16 O4'        -0.8674   -3.1929   -0.0945 O.3       1 ACP        -0.4064
     17 C3'         0.1338   -1.6715    1.4027 C.3       1 ACP         0.0975
     18 O3'         1.2893   -1.4445    2.1808 O.3       1 ACP        -0.5957
     19 C2'         0.2158   -1.0724    0.0128 C.3       1 ACP         0.1195
     20 O2'         1.5141   -1.2448   -0.5513 O.3       1 ACP        -0.5845
     21 C1'        -0.7897   -1.9176   -0.7583 C.3       1 ACP         0.4064
     22 N9         -2.1040   -1.3333   -0.7704 N.pl3     1 ACP        -0.5630
     23 C8         -3.2304   -1.8262   -0.2767 C.ar      1 ACP         0.2808
     24 N7         -4.2847   -1.0309   -0.4481 N.pl3     1 ACP        -0.5040
     25 C5         -3.7951    0.0479   -1.0985 C.ar      1 ACP        -0.2807
     26 C6         -4.3691    1.1983   -1.5536 C.ar      1 ACP         0.7712
     27 N6         -5.7501    1.4047   -1.3573 N.pl3     1 ACP        -0.9461
     28 N1         -3.6289    2.1345   -2.1869 N.ar      1 ACP        -0.7457
     29 C2         -2.3041    1.8525   -2.3333 C.ar      1 ACP         0.7201
     30 N3         -1.6387    0.7492   -1.9218 N.ar      1 ACP        -0.6849
     31 C4         -2.4348   -0.1293   -1.3053 C.ar      1 ACP         0.6369
     32 HOG2        1.3687   -6.2210    7.8170 H         1 ACP         0.4781
     33 HOG3        0.1658   -4.4586    5.5235 H         1 ACP         0.4781
     34 H3B1       -2.4452   -6.5440    7.4648 H         1 ACP         0.1236
     35 H3B2       -2.0066   -4.9077    6.9842 H         1 ACP         0.1236
     36 HOA2       -3.6722   -5.1964    1.0159 H         1 ACP         0.4716
     37 H5'1       -0.1919   -3.8613    3.1376 H         1 ACP         0.0529
     38 H5'2       -0.9466   -4.9385    1.9341 H         1 ACP         0.0529
     39 H4'         0.8886   -3.6448    0.8780 H         1 ACP         0.1213
     40 H3'        -0.7374   -1.2358    1.9870 H         1 ACP         0.0524
     41 HO3'        1.3408   -0.4870    2.3219 H         1 ACP         0.4707
     42 H2'        -0.0384   -0.0310    0.0096 H         1 ACP         0.0774
     43 HO2'        2.1463   -0.7958    0.0370 H         1 ACP         0.4561
     44 H1'        -0.4769   -2.1002   -1.8093 H         1 ACP         0.1559
     45 H8         -3.2974   -2.7789    0.2194 H         1 ACP         0.2754
     46 HN61       -6.2956    0.6838   -0.9296 H         1 ACP         0.4584
     47 HN62       -6.1788    2.2266   -1.7327 H         1 ACP         0.4584
     48 H2         -1.7135    2.6057   -2.8421 H         1 ACP         0.0892
     49 H49        -5.2337   -1.2102   -0.1507 H         1 ACP         0.5039
@<TRIPOS>BOND
     1    1    2 2
     2    1    3 1
     3    1    4 1
     4    1    8 1
     5    3   32 1
     6    4   33 1
     7    5    6 2
     8    5    7 1
     9    5    8 1
    10    5   12 1
    11    8   34 1
    12    8   35 1
    13    9   10 2
    14    9   11 1
    15    9   12 1
    16    9   13 1
    17   11   36 1
    18   13   14 1
    19   14   15 1
    20   14   37 1
    21   14   38 1
    22   15   16 1
    23   15   17 1
    24   15   39 1
    25   16   21 1
    26   17   18 1
    27   17   19 1
    28   17   40 1
    29   18   41 1
    30   19   20 1
    31   19   21 1
    32   19   42 1
    33   20   43 1
    34   21   22 1
    35   21   44 1
    36   22   23 ar
    37   22   31 ar
    38   23   24 ar
    39   23   45 1
    40   24   25 ar
    41   24   49 1
    42   25   26 ar
    43   25   31 ar
    44   26   27 1
    45   26   28 ar
    46   27   46 1
    47   27   47 1
    48   28   29 ar
    49   29   30 ar
    50   29   48 1
    51   30   31 ar
@<TRIPOS>SUBSTRUCTURE
     1 ACP         1 GROUP 0 A     ****
@<TRIPOS>MOLECULE
[[5-(6-amino-7,8-dihydropurin-8-ylium-9-yl)-3,4-dihydroxy-tetrahydrofuran-2-yl]methoxy-hydroxy-phosphoryl]oxy-(phosphonomethyl)phosphinate
   49    51     1     0     0
SMALL
USER_CHARGES

@<TRIPOS>ATOM
      1 PG          5.0166    3.0124   -4.3227 P.3       1 ACP         1.6362
      2 O1G         4.0753    3.7830   -5.1988 O.2       1 ACP        -0.8691
      3 O2G         6.3169    3.8256   -3.8145 O.3       1 ACP        -0.8016
      4 O3G         4.3750    2.4299   -2.9593 O.3       1 ACP        -0.8016
      5 PB          4.6820    0.1486   -5.7261 P.3       1 ACP         1.4874
      6 O1B         5.6191   -0.8856   -6.3056 O.co2     1 ACP        -0.8240
      7 O2B         3.5556    0.7556   -6.5299 O.co2     1 ACP        -0.8240
      8 C3B         5.7244    1.5438   -5.1028 C.3       1 ACP        -0.6510
      9 PA          3.2553   -1.6951   -3.9211 P.3       1 ACP         1.7966
     10 O1A         3.9311   -2.9927   -4.2574 O.2       1 ACP        -0.8436
     11 O2A         1.8463   -1.4592   -4.6804 O.3       1 ACP        -0.8190
     12 O3A         4.1132   -0.3748   -4.2905 O.3       1 ACP        -0.7947
     13 O5'         2.9195   -1.4814   -2.3528 O.3       1 ACP        -0.5846
     14 C5'         2.2816   -0.2918   -1.9206 C.3       1 ACP         0.2005
     15 C4'         2.7248    0.0226   -0.4980 C.3       1 ACP         0.0711
     16 O4'         2.4697    1.4219   -0.2462 O.3       1 ACP        -0.4064
     17 C3'         1.9404   -0.7419    0.5596 C.3       1 ACP         0.0975
     18 O3'         2.7418   -0.8086    1.7389 O.3       1 ACP        -0.5957
     19 C2'         0.7477    0.1630    0.7858 C.3       1 ACP         0.1195
     20 O2'         0.1373   -0.0577    2.0407 O.3       1 ACP        -0.5845
     21 C1'         1.3733    1.5427    0.6747 C.3       1 ACP         0.4064
     22 N9          0.4520    2.5240    0.1767 N.pl3     1 ACP        -0.5630
     23 C8         -0.3477    3.3274    0.8626 C.ar      1 ACP         0.2808
     24 N7         -1.0836    4.1323    0.0983 N.pl3     1 ACP        -0.5040
     25 C5         -0.7273    3.8194   -1.1674 C.ar      1 ACP        -0.2807
     26 C6         -1.1208    4.2877   -2.3863 C.ar      1 ACP         0.7712
     27 N6         -2.0932    5.3066   -2.4528 N.pl3     1 ACP        -0.9461
     28 N1         -0.5892    3.7853   -3.5223 N.ar      1 ACP        -0.7457
     29 C2          0.3427    2.8040   -3.3648 C.ar      1 ACP         0.7201
     30 N3          0.8012    2.2709   -2.2093 N.ar      1 ACP        -0.6849
     31 C4          0.2307    2.8167   -1.1312 C.ar      1 ACP         0.6369
     32 HOG2        6.1904    4.6367   -3.2776 H         1 ACP         0.4781
     33 HOG3        4.9446    1.9172   -2.3470 H         1 ACP         0.4781
     34 H3B1        6.3118    1.8879   -5.9616 H         1 ACP         0.1236
     35 H3B2        6.4299    1.0993   -4.3915 H         1 ACP         0.1236
     36 HOA2        1.8340   -1.4374   -5.6610 H         1 ACP         0.4716
     37 H5'1        2.5577    0.5244   -2.5962 H         1 ACP         0.0529
     38 H5'2        1.1970   -0.4361   -1.9603 H         1 ACP         0.0529
     39 H4'         3.8049   -0.1388   -0.4009 H         1 ACP         0.1213
     40 H3'         1.6783   -1.7629    0.2715 H         1 ACP         0.0524
     41 HO3'        2.2232   -1.2979    2.3953 H         1 ACP         0.4707
     42 H2'        -0.0011    0.0027    0.0003 H         1 ACP         0.0774
     43 HO2'       -0.6141    0.5574    2.1082 H         1 ACP         0.4561
     44 H1'         1.7826    1.9024    1.6451 H         1 ACP         0.1559
     45 H8         -0.4040    3.3373    1.9373 H         1 ACP         0.2754
     46 HN61       -2.5133    5.6366   -1.6073 H         1 ACP         0.4584
     47 HN62       -2.4153    5.6161   -3.3477 H         1 ACP         0.4584
     48 H2          0.7668    2.4032   -4.2782 H         1 ACP         0.0892
     49 H49        -1.7549    4.8194    0.4122 H         1 ACP         0.5039
@<TRIPOS>BOND
     1    1    2 2
     2    1    3 1
     3    1    4 1
     4    1    8 1
     5    3   32 1
     6    4   33 1
     7    5    6 2
     8    5    7 1
     9    5    8 1
    10    5   12 1
    11    8   34 1
    12    8   35 1
    13    9   10 2
    14    9   11 1
    15    9   12 1
    16    9   13 1
    17   11   36 1
    18   13   14 1
    19   14   15 1
    20   14   37 1
    21   14   38 1
    22   15   16 1
    23   15   17 1
    24   15   39 1
    25   16   21 1
    26   17   18 1
    27   17   19 1
    28   17   40 1
    29   18   41 1
    30   19   20 1
    31   19   21 1
    32   19   42 1
    33   20   43 1
    34   21   22 1
    35   21   44 1
    36   22   23 ar
    37   22   31 ar
    38   23   24 ar
    39   23   45 1
    40   24   25 ar
    41   24   49 1
    42   25   26 ar
    43   25   31 ar
    44   26   27 1
    45   26   28 ar
    46   27   46 1
    47   27   47 1
    48   28   29 ar
    49   29   30 ar
    50   29   48 1
    51   30   31 ar
@<TRIPOS>SUBSTRUCTURE
     1 ACP         1 GROUP 0 A     ****
@<TRIPOS>MOLECULE
[[5-(6-amino-7,8-dihydropurin-8-ylium-9-yl)-3,4-dihydroxy-tetrahydrofuran-2-yl]methoxy-hydroxy-phosphoryl]oxy-(phosphonomethyl)phosphinate
   49    51     1     0     0
SMALL
USER_CHARGES

@<TRIPOS>ATOM
      1 PG         -6.0854   -4.8026    4.8506 P.3       1 ACP         1.6362
      2 O1G        -5.1131   -5.4236    5.8078 O.2       1 ACP        -0.8691
      3 O2G        -7.2258   -5.7929    4.2773 O.3       1 ACP        -0.8016
      4 O3G        -6.9252   -3.5503    5.4305 O.3       1 ACP        -0.8016
      5 PB         -4.3662   -5.1766    2.1697 P.3       1 ACP         1.4874
      6 O1B        -3.8954   -4.2722    1.0543 O.co2     1 ACP        -0.8240
      7 O2B        -5.1815   -6.4216    1.9076 O.co2     1 ACP        -0.8240
      8 C3B        -5.3284   -4.1304    3.3534 C.3       1 ACP        -0.6510
      9 PA         -1.7112   -6.2792    2.8234 P.3       1 ACP         1.7966
     10 O1A        -1.8536   -7.6783    2.2982 O.2       1 ACP        -0.8436
     11 O2A        -0.8909   -6.1678    4.2134 O.3       1 ACP        -0.8190
     12 O3A        -3.1111   -5.5365    3.1461 O.3       1 ACP        -0.7947
     13 O5'        -0.9731   -5.2421    1.8246 O.3       1 ACP        -0.5846
     14 C5'        -0.7840   -3.8935    2.2172 C.3       1 ACP         0.2005
     15 C4'        -0.0724   -3.1466    1.1027 C.3       1 ACP         0.0711
     16 O4'        -0.8674   -3.1929   -0.0945 O.3       1 ACP        -0.4064
     17 C3'         0.1338   -1.6715    1.4027 C.3       1 ACP         0.0975
     18 O3'         1.2893   -1.4445    2.1808 O.3       1 ACP        -0.5957
     19 C2'         0.2158   -1.0724    0.0128 C.3       1 ACP         0.1195
     20 O2'         1.5141   -1.2448   -0.5513 O.3       1 ACP        -0.5845
     21 C1'        -0.7897   -1.9176   -0.7583 C.3       1 ACP         0.4064
     22 N9         -2.1040   -1.3333   -0.7704 N.pl3     1 ACP        -0.5630
     23 C8         -3.0822   -1.4850    0.1102 C.ar      1 ACP         0.2808
     24 N7         -4.1844   -0.7999   -0.1888 N.pl3     1 ACP        -0.5040
     25 C5         -3.8875   -0.1651   -1.3445 C.ar      1 ACP        -0.2807
     26 C6         -4.5941    0.6799   -2.1486 C.ar      1 ACP         0.7712
     27 N6         -5.9138    1.0274   -1.7939 N.pl3     1 ACP        -0.9461
     28 N1         -4.0421    1.1824   -3.2748 N.ar      1 ACP        -0.7457
     29 C2         -2.7637    0.7937   -3.5405 C.ar      1 ACP         0.7201
     30 N3         -1.9788   -0.0343   -2.8140 N.ar      1 ACP        -0.6849
     31 C4         -2.5915   -0.4902   -1.7174 C.ar      1 ACP         0.6369
     32 HOG2       -6.9543   -6.5882    3.7713 H         1 ACP         0.4781
     33 HOG3       -7.4997   -3.6852    6.2141 H         1 ACP         0.4781
     34 H3B1       -6.1316   -3.6716    2.7657 H         1 ACP         0.1236
     35 H3B2       -4.6546   -3.3217    3.6584 H         1 ACP         0.1236
     36 HOA2       -1.2307   -6.6393    5.0036 H         1 ACP         0.4716
     37 H5'1       -1.7611   -3.4417    2.4168 H         1 ACP         0.0529
     38 H5'2       -0.1868   -3.8712    3.1345 H         1 ACP         0.0529
     39 H4'         0.8886   -3.6448    0.8780 H         1 ACP         0.1213
     40 H3'        -0.7374   -1.2358    1.9870 H         1 ACP         0.0524
     41 HO3'        1.1626   -1.9325    3.0084 H         1 ACP         0.4707
     42 H2'        -0.0384   -0.0310    0.0096 H         1 ACP         0.0774
     43 HO2'        1.4998   -0.8412   -1.4369 H         1 ACP         0.4561
     44 H1'        -0.4769   -2.1002   -1.8093 H         1 ACP         0.1559
     45 H8         -3.0031   -2.1011    0.9891 H         1 ACP         0.2754
     46 HN61       -6.3271    0.6117   -0.9836 H         1 ACP         0.4584
     47 HN62       -6.4471    1.6092   -2.4083 H         1 ACP         0.4584
     48 H2         -2.3243    1.1986   -4.4449 H         1 ACP         0.0892
     49 H49        -5.0436   -0.7722    0.3425 H         1 ACP         0.5039
@<TRIPOS>BOND
     1    1    2 2
     2    1    3 1
     3    1    4 1
     4    1    8 1
     5    3   32 1
     6    4   33 1
     7    5    6 2
     8    5    7 1
     9    5    8 1
    10    5   12 1
    11    8   34 1
    12    8   35 1
    13    9   10 2
    14    9   11 1
    15    9   12 1
    16    9   13 1
    17   11   36 1
    18   13   14 1
    19   14   15 1
    20   14   37 1
    21   14   38 1
    22   15   16 1
    23   15   17 1
    24   15   39 1
    25   16   21 1
    26   17   18 1
    27   17   19 1
    28   17   40 1
    29   18   41 1
    30   19   20 1
    31   19   21 1
    32   19   42 1
    33   20   43 1
    34   21   22 1
    35   21   44 1
    36   22   23 ar
    37   22   31 ar
    38   23   24 ar
    39   23   45 1
    40   24   25 ar
    41   24   49 1
    42   25   26 ar
    43   25   31 ar
    44   26   27 1
    45   26   28 ar
    46   27   46 1
    47   27   47 1
    48   28   29 ar
    49   29   30 ar
    50   29   48 1
    51   30   31 ar
@<TRIPOS>SUBSTRUCTURE
     1 ACP         1 GROUP 0 A     ****
@<TRIPOS>MOLECULE
[[5-(6-amino-7,8-dihydropurin-8-ylium-9-yl)-3,4-dihydroxy-tetrahydrofuran-2-yl]methoxy-hydroxy-phosphoryl]oxy-(phosphonomethyl)phosphinate
   49    51     1     0     0
SMALL
USER_CHARGES

@<TRIPOS>ATOM
      1 PG          5.3172    1.9214   -4.3355 P.3       1 ACP         1.6362
      2 O1G         3.9153    1.8526   -4.8622 O.2       1 ACP        -0.8691
      3 O2G         6.3021    2.9411   -5.1102 O.3       1 ACP        -0.8016
      4 O3G         5.4552    2.3613   -2.7872 O.3       1 ACP        -0.8016
      5 PB          5.6296   -1.1607   -3.5072 P.3       1 ACP         1.4874
      6 O1B         5.5803   -0.8227   -2.0352 O.co2     1 ACP        -0.8240
      7 O2B         6.4275   -2.3284   -4.0395 O.co2     1 ACP        -0.8240
      8 C3B         6.2124    0.3525   -4.3971 C.3       1 ACP        -0.6510
      9 PA          2.8566   -2.1440   -3.6977 P.3       1 ACP         1.7966
     10 O1A         3.0940   -3.6176   -3.8586 O.2       1 ACP        -0.8436
     11 O2A         1.6428   -1.5611   -4.5945 O.3       1 ACP        -0.8190
     12 O3A         4.1138   -1.2120   -4.1056 O.3       1 ACP        -0.7947
     13 O5'         2.5233   -1.6622   -2.1894 O.3       1 ACP        -0.5846
     14 C5'         2.2816   -0.2918   -1.9206 C.3       1 ACP         0.2005
     15 C4'         2.7248    0.0226   -0.4980 C.3       1 ACP         0.0711
     16 O4'         2.4697    1.4219   -0.2462 O.3       1 ACP        -0.4064
     17 C3'         1.9404   -0.7419    0.5596 C.3       1 ACP         0.0975
     18 O3'         2.7418   -0.8086    1.7389 O.3       1 ACP        -0.5957
     19 C2'         0.7477    0.1630    0.7858 C.3       1 ACP         0.1195
     20 O2'         0.1373   -0.0577    2.0407 O.3       1 ACP        -0.5845
     21 C1'         1.3733    1.5427    0.6747 C.3       1 ACP         0.4064
     22 N9          0.4520    2.5240    0.1767 N.pl3     1 ACP        -0.5630
     23 C8         -0.3477    3.3274    0.8626 C.ar      1 ACP         0.2808
     24 N7         -1.0836    4.1323    0.0983 N.pl3     1 ACP        -0.5040
     25 C5         -0.7273    3.8194   -1.1674 C.ar      1 ACP        -0.2807
     26 C6         -1.1208    4.2877   -2.3863 C.ar      1 ACP         0.7712
     27 N6         -2.0932    5.3066   -2.4528 N.pl3     1 ACP        -0.9461
     28 N1         -0.5892    3.7853   -3.5223 N.ar      1 ACP        -0.7457
     29 C2          0.3427    2.8040   -3.3648 C.ar      1 ACP         0.7201
     30 N3          0.8012    2.2709   -2.2093 N.ar      1 ACP        -0.6849
     31 C4          0.2307    2.8167   -1.1312 C.ar      1 ACP         0.6369
     32 HOG2        7.2313    3.0265   -4.8079 H         1 ACP         0.4781
     33 HOG3        5.1116    3.2371   -2.5094 H         1 ACP         0.4781
     34 H3B1        6.2916    0.0693   -5.4528 H         1 ACP         0.1236
     35 H3B2        7.2315    0.5393   -4.0399 H         1 ACP         0.1236
     36 HOA2        0.7398   -1.9201   -4.4610 H         1 ACP         0.4716
     37 H5'1        2.8428    0.3150   -2.6387 H         1 ACP         0.0529
     38 H5'2        1.2124   -0.0896   -2.0417 H         1 ACP         0.0529
     39 H4'         3.8049   -0.1388   -0.4009 H         1 ACP         0.1213
     40 H3'         1.6783   -1.7629    0.2715 H         1 ACP         0.0524
     41 HO3'        2.2232   -1.2979    2.3953 H         1 ACP         0.4707
     42 H2'        -0.0011    0.0027    0.0003 H         1 ACP         0.0774
     43 HO2'       -0.6141    0.5574    2.1082 H         1 ACP         0.4561
     44 H1'         1.7826    1.9024    1.6451 H         1 ACP         0.1559
     45 H8         -0.4040    3.3373    1.9373 H         1 ACP         0.2754
     46 HN61       -2.5133    5.6366   -1.6073 H         1 ACP         0.4584
     47 HN62       -2.4153    5.6161   -3.3477 H         1 ACP         0.4584
     48 H2          0.7668    2.4032   -4.2782 H         1 ACP         0.0892
     49 H49        -1.7549    4.8194    0.4122 H         1 ACP         0.5039
@<TRIPOS>BOND
     1    1    2 2
     2    1    3 1
     3    1    4 1
     4    1    8 1
     5    3   32 1
     6    4   33 1
     7    5    6 2
     8    5    7 1
     9    5    8 1
    10    5   12 1
    11    8   34 1
    12    8   35 1
    13    9   10 2
    14    9   11 1
    15    9   12 1
    16    9   13 1
    17   11   36 1
    18   13   14 1
    19   14   15 1
    20   14   37 1
    21   14   38 1
    22   15   16 1
    23   15   17 1
    24   15   39 1
    25   16   21 1
    26   17   18 1
    27   17   19 1
    28   17   40 1
    29   18   41 1
    30   19   20 1
    31   19   21 1
    32   19   42 1
    33   20   43 1
    34   21   22 1
    35   21   44 1
    36   22   23 ar
    37   22   31 ar
    38   23   24 ar
    39   23   45 1
    40   24   25 ar
    41   24   49 1
    42   25   26 ar
    43   25   31 ar
    44   26   27 1
    45   26   28 ar
    46   27   46 1
    47   27   47 1
    48   28   29 ar
    49   29   30 ar
    50   29   48 1
    51   30   31 ar
@<TRIPOS>SUBSTRUCTURE
     1 ACP         1 GROUP 0 A     ****
@<TRIPOS>MOLECULE
[[5-(6-amino-7,8-dihydropurin-8-ylium-9-yl)-3,4-dihydroxy-tetrahydrofuran-2-yl]methoxy-hydroxy-phosphoryl]oxy-(phosphonomethyl)phosphinate
   49    51     1     0     0
SMALL
USER_CHARGES

@<TRIPOS>ATOM
      1 PG          3.6000   -0.4354   -7.0726 P.3       1 ACP         1.6362
      2 O1G         4.1486   -1.6744   -7.7141 O.2       1 ACP        -0.8691
      3 O2G         4.0956   -0.1573   -5.5603 O.3       1 ACP        -0.8016
      4 O3G         3.9288    0.9469   -7.8413 O.3       1 ACP        -0.8016
      5 PB          0.8556   -1.6824   -5.9789 P.3       1 ACP         1.4874
      6 O1B         1.1540   -3.0226   -6.6100 O.co2     1 ACP        -0.8240
      7 O2B        -0.5548   -1.1658   -5.8137 O.co2     1 ACP        -0.8240
      8 C3B         1.7984   -0.4070   -6.9308 C.3       1 ACP        -0.6510
      9 PA          1.5750   -2.4621   -3.2281 P.3       1 ACP         1.7966
     10 O1A         1.9285   -3.9069   -3.4315 O.2       1 ACP        -0.8436
     11 O2A         0.0702   -2.2121   -2.6893 O.3       1 ACP        -0.8190
     12 O3A         1.6570   -1.5553   -4.5648 O.3       1 ACP        -0.7947
     13 O5'         2.5233   -1.6622   -2.1894 O.3       1 ACP        -0.5846
     14 C5'         2.2816   -0.2918   -1.9206 C.3       1 ACP         0.2005
     15 C4'         2.7248    0.0226   -0.4980 C.3       1 ACP         0.0711
     16 O4'         2.4697    1.4219   -0.2462 O.3       1 ACP        -0.4064
     17 C3'         1.9404   -0.7419    0.5596 C.3       1 ACP         0.0975
     18 O3'         2.7418   -0.8086    1.7389 O.3       1 ACP        -0.5957
     19 C2'         0.7477    0.1630    0.7858 C.3       1 ACP         0.1195
     20 O2'         0.1373   -0.0577    2.0407 O.3       1 ACP        -0.5845
     21 C1'         1.3733    1.5427    0.6747 C.3       1 ACP         0.4064
     22 N9          0.4520    2.5240    0.1767 N.pl3     1 ACP        -0.5630
     23 C8         -0.8602    2.5861    0.3496 C.ar      1 ACP         0.2808
     24 N7         -1.4308    3.6326   -0.2443 N.pl3     1 ACP        -0.5040
     25 C5         -0.4080    4.2856   -0.8394 C.ar      1 ACP        -0.2807
     26 C6         -0.3432    5.4196   -1.5943 C.ar      1 ACP         0.7712
     27 N6         -1.5276    6.1333   -1.8702 N.pl3     1 ACP        -0.9461
     28 N1          0.8395    5.8603   -2.0764 N.ar      1 ACP        -0.7457
     29 C2          1.9319    5.1095   -1.7617 C.ar      1 ACP         0.7201
     30 N3          1.9773    3.9761   -1.0249 N.ar      1 ACP        -0.6849
     31 C4          0.7724    3.6031   -0.5836 C.ar      1 ACP         0.6369
     32 HOG2        3.9020   -0.8232   -4.8666 H         1 ACP         0.4781
     33 HOG3        4.8656    1.2071   -7.9716 H         1 ACP         0.4781
     34 H3B1        1.5262    0.5592   -6.4912 H         1 ACP         0.1236
     35 H3B2        1.3868   -0.4226   -7.9464 H         1 ACP         0.1236
     36 HOA2       -0.1963   -2.6013   -1.8292 H         1 ACP         0.4716
     37 H5'1        2.8428    0.3150   -2.6387 H         1 ACP         0.0529
     38 H5'2        1.2124   -0.0896   -2.0417 H         1 ACP         0.0529
     39 H4'         3.8049   -0.1388   -0.4009 H         1 ACP         0.1213
     40 H3'         1.6783   -1.7629    0.2715 H         1 ACP         0.0524
     41 HO3'        2.2232   -1.2979    2.3953 H         1 ACP         0.4707
     42 H2'        -0.0011    0.0027    0.0003 H         1 ACP         0.0774
     43 HO2'       -0.1563   -0.9855    2.0596 H         1 ACP         0.4561
     44 H1'         1.7826    1.9024    1.6451 H         1 ACP         0.1559
     45 H8         -1.4217    1.8638    0.9164 H         1 ACP         0.2754
     46 HN61       -2.4023    5.7711   -1.5477 H         1 ACP         0.4584
     47 HN62       -1.4856    6.9379   -2.4627 H         1 ACP         0.4584
     48 H2          2.8789    5.4660   -2.1503 H         1 ACP         0.0892
     49 H49        -2.4129    3.8706   -0.2402 H         1 ACP         0.5039
@<TRIPOS>BOND
     1    1    2 2
     2    1    3 1
     3    1    4 1
     4    1    8 1
     5    3   32 1
     6    4   33 1
     7    5    6 2
     8    5    7 1
     9    5    8 1
    10    5   12 1
    11    8   34 1
    12    8   35 1
    13    9   10 2
    14    9   11 1
    15    9   12 1
    16    9   13 1
    17   11   36 1
    18   13   14 1
    19   14   15 1
    20   14   37 1
    21   14   38 1
    22   15   16 1
    23   15   17 1
    24   15   39 1
    25   16   21 1
    26   17   18 1
    27   17   19 1
    28   17   40 1
    29   18   41 1
    30   19   20 1
    31   19   21 1
    32   19   42 1
    33   20   43 1
    34   21   22 1
    35   21   44 1
    36   22   23 ar
    37   22   31 ar
    38   23   24 ar
    39   23   45 1
    40   24   25 ar
    41   24   49 1
    42   25   26 ar
    43   25   31 ar
    44   26   27 1
    45   26   28 ar
    46   27   46 1
    47   27   47 1
    48   28   29 ar
    49   29   30 ar
    50   29   48 1
    51   30   31 ar
@<TRIPOS>SUBSTRUCTURE
     1 ACP         1 GROUP 0 A     ****
@<TRIPOS>MOLECULE
[[5-(6-amino-7,8-dihydropurin-8-ylium-9-yl)-3,4-dihydroxy-tetrahydrofuran-2-yl]methoxy-hydroxy-phosphoryl]oxy-(phosphonomethyl)phosphinate
   49    51     1     0     0
SMALL
USER_CHARGES

@<TRIPOS>ATOM
      1 PG         -0.5269   -1.8959   -6.9610 P.3       1 ACP         1.6362
      2 O1G        -0.5431   -1.2136   -8.2958 O.2       1 ACP        -0.8691
      3 O2G        -1.7255   -2.9480   -6.7031 O.3       1 ACP        -0.8016
      4 O3G         0.8054   -2.7494   -6.6350 O.3       1 ACP        -0.8016
      5 PB          0.5959    0.5556   -5.2253 P.3       1 ACP         1.4874
      6 O1B         0.1608    1.2796   -3.9723 O.co2     1 ACP        -0.8240
      7 O2B         0.8323    1.2771   -6.5318 O.co2     1 ACP        -0.8240
      8 C3B        -0.6497   -0.7728   -5.5504 C.3       1 ACP        -0.6510
      9 PA          3.3384   -0.0297   -4.3151 P.3       1 ACP         1.7966
     10 O1A         4.1258    0.9106   -5.1809 O.2       1 ACP        -0.8436
     11 O2A         4.0360   -1.4716   -4.0883 O.3       1 ACP        -0.8190
     12 O3A         1.8718   -0.4013   -4.8868 O.3       1 ACP        -0.7947
     13 O5'         3.0190    0.5130   -2.8246 O.3       1 ACP        -0.5846
     14 C5'         2.2816   -0.2918   -1.9206 C.3       1 ACP         0.2005
     15 C4'         2.7248    0.0226   -0.4980 C.3       1 ACP         0.0711
     16 O4'         2.4697    1.4219   -0.2462 O.3       1 ACP        -0.4064
     17 C3'         1.9404   -0.7419    0.5596 C.3       1 ACP         0.0975
     18 O3'         2.7418   -0.8086    1.7389 O.3       1 ACP        -0.5957
     19 C2'         0.7477    0.1630    0.7858 C.3       1 ACP         0.1195
     20 O2'         0.1373   -0.0577    2.0407 O.3       1 ACP        -0.5845
     21 C1'         1.3733    1.5427    0.6747 C.3       1 ACP         0.4064
     22 N9          0.4520    2.5240    0.1767 N.pl3     1 ACP        -0.5630
     23 C8         -0.5899    2.3466   -0.6224 C.ar      1 ACP         0.2808
     24 N7         -1.2514    3.4689   -0.8989 N.pl3     1 ACP        -0.5040
     25 C5         -0.5826    4.4323   -0.2272 C.ar      1 ACP        -0.2807
     26 C6         -0.7636    5.7789   -0.1086 C.ar      1 ACP         0.7712
     27 N6         -1.8382    6.3927   -0.7843 N.pl3     1 ACP        -0.9461
     28 N1          0.0741    6.5233    0.6461 N.ar      1 ACP        -0.7457
     29 C2          1.0845    5.8486    1.2626 C.ar      1 ACP         0.7201
     30 N3          1.3516    4.5236    1.2116 N.ar      1 ACP        -0.6849
     31 C4          0.4827    3.8546    0.4481 C.ar      1 ACP         0.6369
     32 HOG2       -1.8177   -3.7197   -7.3015 H         1 ACP         0.4781
     33 HOG3        0.8716   -3.2175   -5.7755 H         1 ACP         0.4781
     34 H3B1       -1.6180   -0.2654   -5.6273 H         1 ACP         0.1236
     35 H3B2       -0.6820   -1.3853   -4.6422 H         1 ACP         0.1236
     36 HOA2        4.9197   -1.5094   -3.6642 H         1 ACP         0.4716
     37 H5'1        1.2149   -0.0786   -2.0446 H         1 ACP         0.0529
     38 H5'2        2.4640   -1.3459   -2.1539 H         1 ACP         0.0529
     39 H4'         3.8049   -0.1388   -0.4009 H         1 ACP         0.1213
     40 H3'         1.6783   -1.7629    0.2715 H         1 ACP         0.0524
     41 HO3'        2.2232   -1.2979    2.3953 H         1 ACP         0.4707
     42 H2'        -0.0011    0.0027    0.0003 H         1 ACP         0.0774
     43 HO2'       -0.6141    0.5574    2.1082 H         1 ACP         0.4561
     44 H1'         1.7826    1.9024    1.6451 H         1 ACP         0.1559
     45 H8         -0.8833    1.3888   -1.0158 H         1 ACP         0.2754
     46 HN61       -2.4225    5.8385   -1.3773 H         1 ACP         0.4584
     47 HN62       -1.9421    7.3862   -0.7348 H         1 ACP         0.4584
     48 H2          1.7546    6.4491    1.8670 H         1 ACP         0.0892
     49 H49        -2.0705    3.5612   -1.4834 H         1 ACP         0.5039
@<TRIPOS>BOND
     1    1    2 2
     2    1    3 1
     3    1    4 1
     4    1    8 1
     5    3   32 1
     6    4   33 1
     7    5    6 2
     8    5    7 1
     9    5    8 1
    10    5   12 1
    11    8   34 1
    12    8   35 1
    13    9   10 2
    14    9   11 1
    15    9   12 1
    16    9   13 1
    17   11   36 1
    18   13   14 1
    19   14   15 1
    20   14   37 1
    21   14   38 1
    22   15   16 1
    23   15   17 1
    24   15   39 1
    25   16   21 1
    26   17   18 1
    27   17   19 1
    28   17   40 1
    29   18   41 1
    30   19   20 1
    31   19   21 1
    32   19   42 1
    33   20   43 1
    34   21   22 1
    35   21   44 1
    36   22   23 ar
    37   22   31 ar
    38   23   24 ar
    39   23   45 1
    40   24   25 ar
    41   24   49 1
    42   25   26 ar
    43   25   31 ar
    44   26   27 1
    45   26   28 ar
    46   27   46 1
    47   27   47 1
    48   28   29 ar
    49   29   30 ar
    50   29   48 1
    51   30   31 ar
@<TRIPOS>SUBSTRUCTURE
     1 ACP         1 GROUP 0 A     ****
@<TRIPOS>MOLECULE
[[5-(6-amino-7,8-dihydropurin-8-ylium-9-yl)-3,4-dihydroxy-tetrahydrofuran-2-yl]methoxy-hydroxy-phosphoryl]oxy-(phosphonomethyl)phosphinate
   49    51     1     0     0
SMALL
USER_CHARGES

@<TRIPOS>ATOM
      1 PG          0.1831   -8.4982    0.7924 P.3       1 ACP         1.6362
      2 O1G        -0.1350   -7.1040    0.3423 O.2       1 ACP        -0.8691
      3 O2G        -1.0897   -9.4746    0.9837 O.3       1 ACP        -0.8016
      4 O3G         1.1618   -9.3352   -0.1829 O.3       1 ACP        -0.8016
      5 PB          0.2671   -7.9352    3.9482 P.3       1 ACP         1.4874
      6 O1B         1.2536   -8.1901    5.0642 O.co2     1 ACP        -0.8240
      7 O2B        -1.1573   -8.4368    4.0016 O.co2     1 ACP        -0.8240
      8 C3B         1.0208   -8.5903    2.3912 C.3       1 ACP        -0.6510
      9 PA         -0.0534   -5.0501    4.4638 P.3       1 ACP         1.7966
     10 O1A         0.8302   -4.8821    5.6658 O.2       1 ACP        -0.8436
     11 O2A        -1.6254   -5.2153    4.8082 O.3       1 ACP        -0.8190
     12 O3A         0.2783   -6.3512    3.5622 O.3       1 ACP        -0.7947
     13 O5'         0.0089   -3.8407    3.3906 O.3       1 ACP        -0.5846
     14 C5'        -0.7840   -3.8935    2.2172 C.3       1 ACP         0.2005
     15 C4'        -0.0724   -3.1466    1.1027 C.3       1 ACP         0.0711
     16 O4'        -0.8674   -3.1929   -0.0945 O.3       1 ACP        -0.4064
     17 C3'         0.1338   -1.6715    1.4027 C.3       1 ACP         0.0975
     18 O3'         1.2893   -1.4445    2.1808 O.3       1 ACP        -0.5957
     19 C2'         0.2158   -1.0724    0.0128 C.3       1 ACP         0.1195
     20 O2'         1.5141   -1.2448   -0.5513 O.3       1 ACP        -0.5845
     21 C1'        -0.7897   -1.9176   -0.7583 C.3       1 ACP         0.4064
     22 N9         -2.1040   -1.3333   -0.7704 N.pl3     1 ACP        -0.5630
     23 C8         -3.2304   -1.8262   -0.2767 C.ar      1 ACP         0.2808
     24 N7         -4.2847   -1.0309   -0.4481 N.pl3     1 ACP        -0.5040
     25 C5         -3.7951    0.0479   -1.0985 C.ar      1 ACP        -0.2807
     26 C6         -4.3691    1.1983   -1.5536 C.ar      1 ACP         0.7712
     27 N6         -5.7501    1.4047   -1.3573 N.pl3     1 ACP        -0.9461
     28 N1         -3.6289    2.1345   -2.1869 N.ar      1 ACP        -0.7457
     29 C2         -2.3041    1.8525   -2.3333 C.ar      1 ACP         0.7201
     30 N3         -1.6387    0.7492   -1.9218 N.ar      1 ACP        -0.6849
     31 C4         -2.4348   -0.1293   -1.3053 C.ar      1 ACP         0.6369
     32 HOG2       -0.9402  -10.3987    1.2769 H         1 ACP         0.4781
     33 HOG3        0.8826   -9.5003   -1.1087 H         1 ACP         0.4781
     34 H3B1        1.2338   -9.6483    2.5816 H         1 ACP         0.1236
     35 H3B2        1.9874   -8.0843    2.2873 H         1 ACP         0.1236
     36 HOA2       -2.0841   -4.4933    5.2883 H         1 ACP         0.4716
     37 H5'1       -0.9362   -4.9413    1.9386 H         1 ACP         0.0529
     38 H5'2       -1.7563   -3.4348    2.4248 H         1 ACP         0.0529
     39 H4'         0.8886   -3.6448    0.8780 H         1 ACP         0.1213
     40 H3'        -0.7374   -1.2358    1.9870 H         1 ACP         0.0524
     41 HO3'        1.1626   -1.9325    3.0084 H         1 ACP         0.4707
     42 H2'        -0.0384   -0.0310    0.0096 H         1 ACP         0.0774
     43 HO2'        2.1463   -0.7958    0.0370 H         1 ACP         0.4561
     44 H1'        -0.4769   -2.1002   -1.8093 H         1 ACP         0.1559
     45 H8         -3.2974   -2.7789    0.2194 H         1 ACP         0.2754
     46 HN61       -6.2956    0.6838   -0.9296 H         1 ACP         0.4584
     47 HN62       -6.1788    2.2266   -1.7327 H         1 ACP         0.4584
     48 H2         -1.7135    2.6057   -2.8421 H         1 ACP         0.0892
     49 H49        -5.2337   -1.2102   -0.1507 H         1 ACP         0.5039
@<TRIPOS>BOND
     1    1    2 2
     2    1    3 1
     3    1    4 1
     4    1    8 1
     5    3   32 1
     6    4   33 1
     7    5    6 2
     8    5    7 1
     9    5    8 1
    10    5   12 1
    11    8   34 1
    12    8   35 1
    13    9   10 2
    14    9   11 1
    15    9   12 1
    16    9   13 1
    17   11   36 1
    18   13   14 1
    19   14   15 1
    20   14   37 1
    21   14   38 1
    22   15   16 1
    23   15   17 1
    24   15   39 1
    25   16   21 1
    26   17   18 1
    27   17   19 1
    28   17   40 1
    29   18   41 1
    30   19   20 1
    31   19   21 1
    32   19   42 1
    33   20   43 1
    34   21   22 1
    35   21   44 1
    36   22   23 ar
    37   22   31 ar
    38   23   24 ar
    39   23   45 1
    40   24   25 ar
    41   24   49 1
    42   25   26 ar
    43   25   31 ar
    44   26   27 1
    45   26   28 ar
    46   27   46 1
    47   27   47 1
    48   28   29 ar
    49   29   30 ar
    50   29   48 1
    51   30   31 ar
@<TRIPOS>SUBSTRUCTURE
     1 ACP         1 GROUP 0 A     ****
@<TRIPOS>MOLECULE
[[5-(6-amino-7,8-dihydropurin-8-ylium-9-yl)-3,4-dihydroxy-tetrahydrofuran-2-yl]methoxy-hydroxy-phosphoryl]oxy-(phosphonomethyl)phosphinate
   49    51     1     0     0
SMALL
USER_CHARGES

@<TRIPOS>ATOM
      1 PG          3.7555    0.2303   -7.7018 P.3       1 ACP         1.6362
      2 O1G         3.7674    1.5144   -8.4753 O.2       1 ACP        -0.8691
      3 O2G         2.2971   -0.4196   -7.4552 O.3       1 ACP        -0.8016
      4 O3G         4.6060   -0.9791   -8.3528 O.3       1 ACP        -0.8016
      5 PB          4.5355   -1.0840   -4.8827 P.3       1 ACP         1.4874
      6 O1B         5.1584   -0.5907   -3.5973 O.co2     1 ACP        -0.8240
      7 O2B         5.1110   -2.2419   -5.6645 O.co2     1 ACP        -0.8240
      8 C3B         4.4392    0.3607   -6.0338 C.3       1 ACP        -0.6510
      9 PA          2.1469   -2.2812   -3.6362 P.3       1 ACP         1.7966
     10 O1A         2.4486   -3.7424   -3.8027 O.2       1 ACP        -0.8436
     11 O2A         0.5931   -1.8902   -3.8605 O.3       1 ACP        -0.8190
     12 O3A         2.9361   -1.3107   -4.6613 O.3       1 ACP        -0.7947
     13 O5'         2.5233   -1.6622   -2.1894 O.3       1 ACP        -0.5846
     14 C5'         2.2816   -0.2918   -1.9206 C.3       1 ACP         0.2005
     15 C4'         2.7248    0.0226   -0.4980 C.3       1 ACP         0.0711
     16 O4'         2.4697    1.4219   -0.2462 O.3       1 ACP        -0.4064
     17 C3'         1.9404   -0.7419    0.5596 C.3       1 ACP         0.0975
     18 O3'         2.7418   -0.8086    1.7389 O.3       1 ACP        -0.5957
     19 C2'         0.7477    0.1630    0.7858 C.3       1 ACP         0.1195
     20 O2'         0.1373   -0.0577    2.0407 O.3       1 ACP        -0.5845
     21 C1'         1.3733    1.5427    0.6747 C.3       1 ACP         0.4064
     22 N9          0.4520    2.5240    0.1767 N.pl3     1 ACP        -0.5630
     23 C8         -0.3477    3.3274    0.8626 C.ar      1 ACP         0.2808
     24 N7         -1.0836    4.1323    0.0983 N.pl3     1 ACP        -0.5040
     25 C5         -0.7273    3.8194   -1.1674 C.ar      1 ACP        -0.2807
     26 C6         -1.1208    4.2877   -2.3863 C.ar      1 ACP         0.7712
     27 N6         -2.0932    5.3066   -2.4528 N.pl3     1 ACP        -0.9461
     28 N1         -0.5892    3.7853   -3.5223 N.ar      1 ACP        -0.7457
     29 C2          0.3427    2.8040   -3.3648 C.ar      1 ACP         0.7201
     30 N3          0.8012    2.2709   -2.2093 N.ar      1 ACP        -0.6849
     31 C4          0.2307    2.8167   -1.1312 C.ar      1 ACP         0.6369
     32 HOG2        2.2298   -1.2605   -6.9546 H         1 ACP         0.4781
     33 HOG3        4.3656   -1.3015   -9.2475 H         1 ACP         0.4781
     34 H3B1        5.4645    0.7338   -6.1354 H         1 ACP         0.1236
     35 H3B2        3.8702    1.1325   -5.5030 H         1 ACP         0.1236
     36 HOA2       -0.0865   -2.2971   -3.2819 H         1 ACP         0.4716
     37 H5'1        2.8428    0.3150   -2.6387 H         1 ACP         0.0529
     38 H5'2        1.2124   -0.0896   -2.0417 H         1 ACP         0.0529
     39 H4'         3.8049   -0.1388   -0.4009 H         1 ACP         0.1213
     40 H3'         1.6783   -1.7629    0.2715 H         1 ACP         0.0524
     41 HO3'        2.2232   -1.2979    2.3953 H         1 ACP         0.4707
     42 H2'        -0.0011    0.0027    0.0003 H         1 ACP         0.0774
     43 HO2'       -0.6141    0.5574    2.1082 H         1 ACP         0.4561
     44 H1'         1.7826    1.9024    1.6451 H         1 ACP         0.1559
     45 H8         -0.4040    3.3373    1.9373 H         1 ACP         0.2754
     46 HN61       -2.5133    5.6366   -1.6073 H         1 ACP         0.4584
     47 HN62       -2.4153    5.6161   -3.3477 H         1 ACP         0.4584
     48 H2          0.7668    2.4032   -4.2782 H         1 ACP         0.0892
     49 H49        -1.7549    4.8194    0.4122 H         1 ACP         0.5039
@<TRIPOS>BOND
     1    1    2 2
     2    1    3 1
     3    1    4 1
     4    1    8 1
     5    3   32 1
     6    4   33 1
     7    5    6 2
     8    5    7 1
     9    5    8 1
    10    5   12 1
    11    8   34 1
    12    8   35 1
    13    9   10 2
    14    9   11 1
    15    9   12 1
    16    9   13 1
    17   11   36 1
    18   13   14 1
    19   14   15 1
    20   14   37 1
    21   14   38 1
    22   15   16 1
    23   15   17 1
    24   15   39 1
    25   16   21 1
    26   17   18 1
    27   17   19 1
    28   17   40 1
    29   18   41 1
    30   19   20 1
    31   19   21 1
    32   19   42 1
    33   20   43 1
    34   21   22 1
    35   21   44 1
    36   22   23 ar
    37   22   31 ar
    38   23   24 ar
    39   23   45 1
    40   24   25 ar
    41   24   49 1
    42   25   26 ar
    43   25   31 ar
    44   26   27 1
    45   26   28 ar
    46   27   46 1
    47   27   47 1
    48   28   29 ar
    49   29   30 ar
    50   29   48 1
    51   30   31 ar
@<TRIPOS>SUBSTRUCTURE
     1 ACP         1 GROUP 0 A     ****
@<TRIPOS>MOLECULE
[[5-(6-amino-7,8-dihydropurin-8-ylium-9-yl)-3,4-dihydroxy-tetrahydrofuran-2-yl]methoxy-hydroxy-phosphoryl]oxy-(phosphonomethyl)phosphinate
   49    51     1     0     0
SMALL
USER_CHARGES

@<TRIPOS>ATOM
      1 PG          5.3172    1.9214   -4.3355 P.3       1 ACP         1.6362
      2 O1G         5.1660    2.4913   -2.9571 O.2       1 ACP        -0.8691
      3 O2G         3.9366    1.5913   -5.1069 O.3       1 ACP        -0.8016
      4 O3G         6.1269    2.8467   -5.3833 O.3       1 ACP        -0.8016
      5 PB          5.6296   -1.1607   -3.5072 P.3       1 ACP         1.4874
      6 O1B         5.5803   -0.8227   -2.0352 O.co2     1 ACP        -0.8240
      7 O2B         6.4275   -2.3284   -4.0395 O.co2     1 ACP        -0.8240
      8 C3B         6.2124    0.3525   -4.3971 C.3       1 ACP        -0.6510
      9 PA          2.8566   -2.1440   -3.6977 P.3       1 ACP         1.7966
     10 O1A         3.0940   -3.6176   -3.8586 O.2       1 ACP        -0.8436
     11 O2A         1.6428   -1.5611   -4.5945 O.3       1 ACP        -0.8190
     12 O3A         4.1138   -1.2120   -4.1056 O.3       1 ACP        -0.7947
     13 O5'         2.5233   -1.6622   -2.1894 O.3       1 ACP        -0.5846
     14 C5'         2.2816   -0.2918   -1.9206 C.3       1 ACP         0.2005
     15 C4'         2.7248    0.0226   -0.4980 C.3       1 ACP         0.0711
     16 O4'         2.4697    1.4219   -0.2462 O.3       1 ACP        -0.4064
     17 C3'         1.9404   -0.7419    0.5596 C.3       1 ACP         0.0975
     18 O3'         2.7418   -0.8086    1.7389 O.3       1 ACP        -0.5957
     19 C2'         0.7477    0.1630    0.7858 C.3       1 ACP         0.1195
     20 O2'         0.1373   -0.0577    2.0407 O.3       1 ACP        -0.5845
     21 C1'         1.3733    1.5427    0.6747 C.3       1 ACP         0.4064
     22 N9          0.4520    2.5240    0.1767 N.pl3     1 ACP        -0.5630
     23 C8         -0.8602    2.5861    0.3496 C.ar      1 ACP         0.2808
     24 N7         -1.4308    3.6326   -0.2443 N.pl3     1 ACP        -0.5040
     25 C5         -0.4080    4.2856   -0.8394 C.ar      1 ACP        -0.2807
     26 C6         -0.3432    5.4196   -1.5943 C.ar      1 ACP         0.7712
     27 N6         -1.5276    6.1333   -1.8702 N.pl3     1 ACP        -0.9461
     28 N1          0.8395    5.8603   -2.0764 N.ar      1 ACP        -0.7457
     29 C2          1.9319    5.1095   -1.7617 C.ar      1 ACP         0.7201
     30 N3          1.9773    3.9761   -1.0249 N.ar      1 ACP        -0.6849
     31 C4          0.7724    3.6031   -0.5836 C.ar      1 ACP         0.6369
     32 HOG2        3.3127    0.9467   -4.7102 H         1 ACP         0.4781
     33 HOG3        5.7833    3.7416   -5.5914 H         1 ACP         0.4781
     34 H3B1        6.2916    0.0693   -5.4528 H         1 ACP         0.1236
     35 H3B2        7.2315    0.5393   -4.0399 H         1 ACP         0.1236
     36 HOA2        1.6914   -1.6457   -5.5706 H         1 ACP         0.4716
     37 H5'1        2.8428    0.3150   -2.6387 H         1 ACP         0.0529
     38 H5'2        1.2124   -0.0896   -2.0417 H         1 ACP         0.0529
     39 H4'         3.8049   -0.1388   -0.4009 H         1 ACP         0.1213
     40 H3'         1.6783   -1.7629    0.2715 H         1 ACP         0.0524
     41 HO3'        2.2232   -1.2979    2.3953 H         1 ACP         0.4707
     42 H2'        -0.0011    0.0027    0.0003 H         1 ACP         0.0774
     43 HO2'       -0.1563   -0.9855    2.0596 H         1 ACP         0.4561
     44 H1'         1.7826    1.9024    1.6451 H         1 ACP         0.1559
     45 H8         -1.4217    1.8638    0.9164 H         1 ACP         0.2754
     46 HN61       -2.4023    5.7711   -1.5477 H         1 ACP         0.4584
     47 HN62       -1.4856    6.9379   -2.4627 H         1 ACP         0.4584
     48 H2          2.8789    5.4660   -2.1503 H         1 ACP         0.0892
     49 H49        -2.4129    3.8706   -0.2402 H         1 ACP         0.5039
@<TRIPOS>BOND
     1    1    2 2
     2    1    3 1
     3    1    4 1
     4    1    8 1
     5    3   32 1
     6    4   33 1
     7    5    6 2
     8    5    7 1
     9    5    8 1
    10    5   12 1
    11    8   34 1
    12    8   35 1
    13    9   10 2
    14    9   11 1
    15    9   12 1
    16    9   13 1
    17   11   36 1
    18   13   14 1
    19   14   15 1
    20   14   37 1
    21   14   38 1
    22   15   16 1
    23   15   17 1
    24   15   39 1
    25   16   21 1
    26   17   18 1
    27   17   19 1
    28   17   40 1
    29   18   41 1
    30   19   20 1
    31   19   21 1
    32   19   42 1
    33   20   43 1
    34   21   22 1
    35   21   44 1
    36   22   23 ar
    37   22   31 ar
    38   23   24 ar
    39   23   45 1
    40   24   25 ar
    41   24   49 1
    42   25   26 ar
    43   25   31 ar
    44   26   27 1
    45   26   28 ar
    46   27   46 1
    47   27   47 1
    48   28   29 ar
    49   29   30 ar
    50   29   48 1
    51   30   31 ar
@<TRIPOS>SUBSTRUCTURE
     1 ACP         1 GROUP 0 A     ****
@<TRIPOS>MOLECULE
[[5-(6-amino-7,8-dihydropurin-8-ylium-9-yl)-3,4-dihydroxy-tetrahydrofuran-2-yl]methoxy-hydroxy-phosphoryl]oxy-(phosphonomethyl)phosphinate
   49    51     1     0     0
SMALL
USER_CHARGES

@<TRIPOS>ATOM
      1 PG         -1.3966   -1.6692   -4.8773 P.3       1 ACP         1.6362
      2 O1G        -2.8559   -1.3312   -4.9369 O.2       1 ACP        -0.8691
      3 O2G        -0.6458   -1.2707   -3.5034 O.3       1 ACP        -0.8016
      4 O3G        -1.0390   -3.2333   -5.0666 O.3       1 ACP        -0.8016
      5 PB          1.4325   -1.1192   -6.2832 P.3       1 ACP         1.4874
      6 O1B         1.9145   -0.2900   -7.4509 O.co2     1 ACP        -0.8240
      7 O2B         1.6841   -2.6065   -6.1927 O.co2     1 ACP        -0.8240
      8 C3B        -0.3943   -0.8630   -6.1469 C.3       1 ACP        -0.6510
      9 PA          3.3384   -0.0297   -4.3151 P.3       1 ACP         1.7966
     10 O1A         4.1258    0.9106   -5.1809 O.2       1 ACP        -0.8436
     11 O2A         4.0360   -1.4716   -4.0883 O.3       1 ACP        -0.8190
     12 O3A         1.8718   -0.4013   -4.8868 O.3       1 ACP        -0.7947
     13 O5'         3.0190    0.5130   -2.8246 O.3       1 ACP        -0.5846
     14 C5'         2.2816   -0.2918   -1.9206 C.3       1 ACP         0.2005
     15 C4'         2.7248    0.0226   -0.4980 C.3       1 ACP         0.0711
     16 O4'         2.4697    1.4219   -0.2462 O.3       1 ACP        -0.4064
     17 C3'         1.9404   -0.7419    0.5596 C.3       1 ACP         0.0975
     18 O3'         2.7418   -0.8086    1.7389 O.3       1 ACP        -0.5957
     19 C2'         0.7477    0.1630    0.7858 C.3       1 ACP         0.1195
     20 O2'         0.1373   -0.0577    2.0407 O.3       1 ACP        -0.5845
     21 C1'         1.3733    1.5427    0.6747 C.3       1 ACP         0.4064
     22 N9          0.4520    2.5240    0.1767 N.pl3     1 ACP        -0.5630
     23 C8         -0.6854    2.9365    0.7168 C.ar      1 ACP         0.2808
     24 N7         -1.3118    3.8692    0.0018 N.pl3     1 ACP        -0.5040
     25 C5         -0.5159    4.0659   -1.0727 C.ar      1 ACP        -0.2807
     26 C6         -0.6068    4.8856   -2.1589 C.ar      1 ACP         0.7712
     27 N6         -1.7186    5.7437   -2.2844 N.pl3     1 ACP        -0.9461
     28 N1          0.3541    4.8807   -3.1087 N.ar      1 ACP        -0.7457
     29 C2          1.3913    4.0207   -2.9071 C.ar      1 ACP         0.7201
     30 N3          1.5770    3.1707   -1.8715 N.ar      1 ACP        -0.6849
     31 C4          0.5883    3.2318   -0.9747 C.ar      1 ACP         0.6369
     32 HOG2        0.3103   -1.4687   -3.4094 H         1 ACP         0.4781
     33 HOG3       -1.4045   -3.8848   -4.4308 H         1 ACP         0.4781
     34 H3B1       -0.8123   -1.1525   -7.1177 H         1 ACP         0.1236
     35 H3B2       -0.5409    0.2184   -6.0463 H         1 ACP         0.1236
     36 HOA2        4.9197   -1.5094   -3.6642 H         1 ACP         0.4716
     37 H5'1        1.2149   -0.0786   -2.0446 H         1 ACP         0.0529
     38 H5'2        2.4640   -1.3459   -2.1539 H         1 ACP         0.0529
     39 H4'         3.8049   -0.1388   -0.4009 H         1 ACP         0.1213
     40 H3'         1.6783   -1.7629    0.2715 H         1 ACP         0.0524
     41 HO3'        2.2232   -1.2979    2.3953 H         1 ACP         0.4707
     42 H2'        -0.0011    0.0027    0.0003 H         1 ACP         0.0774
     43 HO2'       -0.1563   -0.9855    2.0596 H         1 ACP         0.4561
     44 H1'         1.7826    1.9024    1.6451 H         1 ACP         0.1559
     45 H8         -1.0749    2.5601    1.6468 H         1 ACP         0.2754
     46 HN61       -2.4460    5.7038   -1.5992 H         1 ACP         0.4584
     47 HN62       -1.8079    6.3099   -3.1040 H         1 ACP         0.4584
     48 H2          2.1601    4.0194   -3.6712 H         1 ACP         0.0892
     49 H49        -2.1877    4.3195    0.2279 H         1 ACP         0.5039
@<TRIPOS>BOND
     1    1    2 2
     2    1    3 1
     3    1    4 1
     4    1    8 1
     5    3   32 1
     6    4   33 1
     7    5    6 2
     8    5    7 1
     9    5    8 1
    10    5   12 1
    11    8   34 1
    12    8   35 1
    13    9   10 2
    14    9   11 1
    15    9   12 1
    16    9   13 1
    17   11   36 1
    18   13   14 1
    19   14   15 1
    20   14   37 1
    21   14   38 1
    22   15   16 1
    23   15   17 1
    24   15   39 1
    25   16   21 1
    26   17   18 1
    27   17   19 1
    28   17   40 1
    29   18   41 1
    30   19   20 1
    31   19   21 1
    32   19   42 1
    33   20   43 1
    34   21   22 1
    35   21   44 1
    36   22   23 ar
    37   22   31 ar
    38   23   24 ar
    39   23   45 1
    40   24   25 ar
    41   24   49 1
    42   25   26 ar
    43   25   31 ar
    44   26   27 1
    45   26   28 ar
    46   27   46 1
    47   27   47 1
    48   28   29 ar
    49   29   30 ar
    50   29   48 1
    51   30   31 ar
@<TRIPOS>SUBSTRUCTURE
     1 ACP         1 GROUP 0 A     ****
@<TRIPOS>MOLECULE
[[5-(6-amino-7,8-dihydropurin-8-ylium-9-yl)-3,4-dihydroxy-tetrahydrofuran-2-yl]methoxy-hydroxy-phosphoryl]oxy-(phosphonomethyl)phosphinate
   49    51     1     0     0
SMALL
USER_CHARGES

@<TRIPOS>ATOM
      1 PG          3.0062    1.1845   -7.6793 P.3       1 ACP         1.6362
      2 O1G         3.9151    0.5791   -8.7063 O.2       1 ACP        -0.8691
      3 O2G         2.4625    2.6674   -8.0194 O.3       1 ACP        -0.8016
      4 O3G         1.6601    0.3482   -7.3656 O.3       1 ACP        -0.8016
      5 PB          4.4035   -0.0496   -5.0702 P.3       1 ACP         1.4874
      6 O1B         4.9481    0.5035   -3.7736 O.co2     1 ACP        -0.8240
      7 O2B         5.2451   -0.8860   -6.0060 O.co2     1 ACP        -0.8240
      8 C3B         3.7560    1.3817   -6.0467 C.3       1 ACP        -0.6510
      9 PA          2.6334   -2.0591   -3.8369 P.3       1 ACP         1.7966
     10 O1A         3.3655   -3.3238   -4.1808 O.2       1 ACP        -0.8436
     11 O2A         1.0224   -2.1730   -3.9317 O.3       1 ACP        -0.8190
     12 O3A         2.9834   -0.7995   -4.7890 O.3       1 ACP        -0.7947
     13 O5'         2.9195   -1.4814   -2.3528 O.3       1 ACP        -0.5846
     14 C5'         2.2816   -0.2918   -1.9206 C.3       1 ACP         0.2005
     15 C4'         2.7248    0.0226   -0.4980 C.3       1 ACP         0.0711
     16 O4'         2.4697    1.4219   -0.2462 O.3       1 ACP        -0.4064
     17 C3'         1.9404   -0.7419    0.5596 C.3       1 ACP         0.0975
     18 O3'         2.7418   -0.8086    1.7389 O.3       1 ACP        -0.5957
     19 C2'         0.7477    0.1630    0.7858 C.3       1 ACP         0.1195
     20 O2'         0.1373   -0.0577    2.0407 O.3       1 ACP        -0.5845
     21 C1'         1.3733    1.5427    0.6747 C.3       1 ACP         0.4064
     22 N9          0.4520    2.5240    0.1767 N.pl3     1 ACP        -0.5630
     23 C8         -0.3477    3.3274    0.8626 C.ar      1 ACP         0.2808
     24 N7         -1.0836    4.1323    0.0983 N.pl3     1 ACP        -0.5040
     25 C5         -0.7273    3.8194   -1.1674 C.ar      1 ACP        -0.2807
     26 C6         -1.1208    4.2877   -2.3863 C.ar      1 ACP         0.7712
     27 N6         -2.0932    5.3066   -2.4528 N.pl3     1 ACP        -0.9461
     28 N1         -0.5892    3.7853   -3.5223 N.ar      1 ACP        -0.7457
     29 C2          0.3427    2.8040   -3.3648 C.ar      1 ACP         0.7201
     30 N3          0.8012    2.2709   -2.2093 N.ar      1 ACP        -0.6849
     31 C4          0.2307    2.8167   -1.1312 C.ar      1 ACP         0.6369
     32 HOG2        1.9341    2.8047   -8.8344 H         1 ACP         0.4781
     33 HOG3        1.0277    0.6968   -6.7016 H         1 ACP         0.4781
     34 H3B1        4.5981    2.0736   -6.1616 H         1 ACP         0.1236
     35 H3B2        3.0209    1.8784   -5.4033 H         1 ACP         0.1236
     36 HOA2        0.6135   -2.4076   -4.7919 H         1 ACP         0.4716
     37 H5'1        2.5577    0.5244   -2.5962 H         1 ACP         0.0529
     38 H5'2        1.1970   -0.4361   -1.9603 H         1 ACP         0.0529
     39 H4'         3.8049   -0.1388   -0.4009 H         1 ACP         0.1213
     40 H3'         1.6783   -1.7629    0.2715 H         1 ACP         0.0524
     41 HO3'        2.2232   -1.2979    2.3953 H         1 ACP         0.4707
     42 H2'        -0.0011    0.0027    0.0003 H         1 ACP         0.0774
     43 HO2'       -0.6141    0.5574    2.1082 H         1 ACP         0.4561
     44 H1'         1.7826    1.9024    1.6451 H         1 ACP         0.1559
     45 H8         -0.4040    3.3373    1.9373 H         1 ACP         0.2754
     46 HN61       -2.5133    5.6366   -1.6073 H         1 ACP         0.4584
     47 HN62       -2.4153    5.6161   -3.3477 H         1 ACP         0.4584
     48 H2          0.7668    2.4032   -4.2782 H         1 ACP         0.0892
     49 H49        -1.7549    4.8194    0.4122 H         1 ACP         0.5039
@<TRIPOS>BOND
     1    1    2 2
     2    1    3 1
     3    1    4 1
     4    1    8 1
     5    3   32 1
     6    4   33 1
     7    5    6 2
     8    5    7 1
     9    5    8 1
    10    5   12 1
    11    8   34 1
    12    8   35 1
    13    9   10 2
    14    9   11 1
    15    9   12 1
    16    9   13 1
    17   11   36 1
    18   13   14 1
    19   14   15 1
    20   14   37 1
    21   14   38 1
    22   15   16 1
    23   15   17 1
    24   15   39 1
    25   16   21 1
    26   17   18 1
    27   17   19 1
    28   17   40 1
    29   18   41 1
    30   19   20 1
    31   19   21 1
    32   19   42 1
    33   20   43 1
    34   21   22 1
    35   21   44 1
    36   22   23 ar
    37   22   31 ar
    38   23   24 ar
    39   23   45 1
    40   24   25 ar
    41   24   49 1
    42   25   26 ar
    43   25   31 ar
    44   26   27 1
    45   26   28 ar
    46   27   46 1
    47   27   47 1
    48   28   29 ar
    49   29   30 ar
    50   29   48 1
    51   30   31 ar
@<TRIPOS>SUBSTRUCTURE
     1 ACP         1 GROUP 0 A     ****
@<TRIPOS>MOLECULE
[[5-(6-amino-7,8-dihydropurin-8-ylium-9-yl)-3,4-dihydroxy-tetrahydrofuran-2-yl]methoxy-hydroxy-phosphoryl]oxy-(phosphonomethyl)phosphinate
   49    51     1     0     0
SMALL
USER_CHARGES

@<TRIPOS>ATOM
      1 PG          5.9312   -0.2756   -5.7913 P.3       1 ACP         1.6362
      2 O1G         6.6312   -1.5289   -6.2231 O.2       1 ACP        -0.8691
      3 O2G         5.6449   -0.1496   -4.2063 O.3       1 ACP        -0.8016
      4 O3G         6.6927    1.1030   -6.1513 O.3       1 ACP        -0.8016
      5 PB          2.9196   -1.2572   -6.2908 P.3       1 ACP         1.4874
      6 O1B         3.3896   -2.5824   -6.8445 O.co2     1 ACP        -0.8240
      7 O2B         1.6496   -0.5902   -6.7659 O.co2     1 ACP        -0.8240
      8 C3B         4.2969   -0.0454   -6.5278 C.3       1 ACP        -0.6510
      9 PA          2.1469   -2.2812   -3.6362 P.3       1 ACP         1.7966
     10 O1A         2.4486   -3.7424   -3.8027 O.2       1 ACP        -0.8436
     11 O2A         0.5931   -1.8902   -3.8605 O.3       1 ACP        -0.8190
     12 O3A         2.9361   -1.3107   -4.6613 O.3       1 ACP        -0.7947
     13 O5'         2.5233   -1.6622   -2.1894 O.3       1 ACP        -0.5846
     14 C5'         2.2816   -0.2918   -1.9206 C.3       1 ACP         0.2005
     15 C4'         2.7248    0.0226   -0.4980 C.3       1 ACP         0.0711
     16 O4'         2.4697    1.4219   -0.2462 O.3       1 ACP        -0.4064
     17 C3'         1.9404   -0.7419    0.5596 C.3       1 ACP         0.0975
     18 O3'         2.7418   -0.8086    1.7389 O.3       1 ACP        -0.5957
     19 C2'         0.7477    0.1630    0.7858 C.3       1 ACP         0.1195
     20 O2'         0.1373   -0.0577    2.0407 O.3       1 ACP        -0.5845
     21 C1'         1.3733    1.5427    0.6747 C.3       1 ACP         0.4064
     22 N9          0.4520    2.5240    0.1767 N.pl3     1 ACP        -0.5630
     23 C8         -0.3477    3.3274    0.8626 C.ar      1 ACP         0.2808
     24 N7         -1.0836    4.1323    0.0983 N.pl3     1 ACP        -0.5040
     25 C5         -0.7273    3.8194   -1.1674 C.ar      1 ACP        -0.2807
     26 C6         -1.1208    4.2877   -2.3863 C.ar      1 ACP         0.7712
     27 N6         -2.0932    5.3066   -2.4528 N.pl3     1 ACP        -0.9461
     28 N1         -0.5892    3.7853   -3.5223 N.ar      1 ACP        -0.7457
     29 C2          0.3427    2.8040   -3.3648 C.ar      1 ACP         0.7201
     30 N3          0.8012    2.2709   -2.2093 N.ar      1 ACP        -0.6849
     31 C4          0.2307    2.8167   -1.1312 C.ar      1 ACP         0.6369
     32 HOG2        5.0896   -0.8291   -3.7681 H         1 ACP         0.4781
     33 HOG3        7.5902    1.2593   -5.7874 H         1 ACP         0.4781
     34 H3B1        3.9159    0.9175   -6.1694 H         1 ACP         0.1236
     35 H3B2        4.4330    0.0489   -7.6112 H         1 ACP         0.1236
     36 HOA2       -0.0865   -2.2971   -3.2819 H         1 ACP         0.4716
     37 H5'1        2.8428    0.3150   -2.6387 H         1 ACP         0.0529
     38 H5'2        1.2124   -0.0896   -2.0417 H         1 ACP         0.0529
     39 H4'         3.8049   -0.1388   -0.4009 H         1 ACP         0.1213
     40 H3'         1.6783   -1.7629    0.2715 H         1 ACP         0.0524
     41 HO3'        2.2232   -1.2979    2.3953 H         1 ACP         0.4707
     42 H2'        -0.0011    0.0027    0.0003 H         1 ACP         0.0774
     43 HO2'       -0.6141    0.5574    2.1082 H         1 ACP         0.4561
     44 H1'         1.7826    1.9024    1.6451 H         1 ACP         0.1559
     45 H8         -0.4040    3.3373    1.9373 H         1 ACP         0.2754
     46 HN61       -2.5133    5.6366   -1.6073 H         1 ACP         0.4584
     47 HN62       -2.4153    5.6161   -3.3477 H         1 ACP         0.4584
     48 H2          0.7668    2.4032   -4.2782 H         1 ACP         0.0892
     49 H49        -1.7549    4.8194    0.4122 H         1 ACP         0.5039
@<TRIPOS>BOND
     1    1    2 2
     2    1    3 1
     3    1    4 1
     4    1    8 1
     5    3   32 1
     6    4   33 1
     7    5    6 2
     8    5    7 1
     9    5    8 1
    10    5   12 1
    11    8   34 1
    12    8   35 1
    13    9   10 2
    14    9   11 1
    15    9   12 1
    16    9   13 1
    17   11   36 1
    18   13   14 1
    19   14   15 1
    20   14   37 1
    21   14   38 1
    22   15   16 1
    23   15   17 1
    24   15   39 1
    25   16   21 1
    26   17   18 1
    27   17   19 1
    28   17   40 1
    29   18   41 1
    30   19   20 1
    31   19   21 1
    32   19   42 1
    33   20   43 1
    34   21   22 1
    35   21   44 1
    36   22   23 ar
    37   22   31 ar
    38   23   24 ar
    39   23   45 1
    40   24   25 ar
    41   24   49 1
    42   25   26 ar
    43   25   31 ar
    44   26   27 1
    45   26   28 ar
    46   27   46 1
    47   27   47 1
    48   28   29 ar
    49   29   30 ar
    50   29   48 1
    51   30   31 ar
@<TRIPOS>SUBSTRUCTURE
     1 ACP         1 GROUP 0 A     ****
@<TRIPOS>MOLECULE
[[5-(6-amino-7,8-dihydropurin-8-ylium-9-yl)-3,4-dihydroxy-tetrahydrofuran-2-yl]methoxy-hydroxy-phosphoryl]oxy-(phosphonomethyl)phosphinate
   49    51     1     0     0
SMALL
USER_CHARGES

@<TRIPOS>ATOM
      1 PG         -0.5269   -1.8959   -6.9610 P.3       1 ACP         1.6362
      2 O1G         0.7237   -2.7224   -6.9842 O.2       1 ACP        -0.8691
      3 O2G        -0.7397   -0.9207   -8.2314 O.3       1 ACP        -0.8016
      4 O3G        -1.9081   -2.7305   -6.8862 O.3       1 ACP        -0.8016
      5 PB          0.5959    0.5556   -5.2253 P.3       1 ACP         1.4874
      6 O1B         0.1608    1.2796   -3.9723 O.co2     1 ACP        -0.8240
      7 O2B         0.8323    1.2771   -6.5318 O.co2     1 ACP        -0.8240
      8 C3B        -0.6497   -0.7728   -5.5504 C.3       1 ACP        -0.6510
      9 PA          3.3384   -0.0297   -4.3151 P.3       1 ACP         1.7966
     10 O1A         4.1258    0.9106   -5.1809 O.2       1 ACP        -0.8436
     11 O2A         4.0360   -1.4716   -4.0883 O.3       1 ACP        -0.8190
     12 O3A         1.8718   -0.4013   -4.8868 O.3       1 ACP        -0.7947
     13 O5'         3.0190    0.5130   -2.8246 O.3       1 ACP        -0.5846
     14 C5'         2.2816   -0.2918   -1.9206 C.3       1 ACP         0.2005
     15 C4'         2.7248    0.0226   -0.4980 C.3       1 ACP         0.0711
     16 O4'         2.4697    1.4219   -0.2462 O.3       1 ACP        -0.4064
     17 C3'         1.9404   -0.7419    0.5596 C.3       1 ACP         0.0975
     18 O3'         2.7418   -0.8086    1.7389 O.3       1 ACP        -0.5957
     19 C2'         0.7477    0.1630    0.7858 C.3       1 ACP         0.1195
     20 O2'         0.1373   -0.0577    2.0407 O.3       1 ACP        -0.5845
     21 C1'         1.3733    1.5427    0.6747 C.3       1 ACP         0.4064
     22 N9          0.4520    2.5240    0.1767 N.pl3     1 ACP        -0.5630
     23 C8         -0.6854    2.9365    0.7168 C.ar      1 ACP         0.2808
     24 N7         -1.3118    3.8692    0.0018 N.pl3     1 ACP        -0.5040
     25 C5         -0.5159    4.0659   -1.0727 C.ar      1 ACP        -0.2807
     26 C6         -0.6068    4.8856   -2.1589 C.ar      1 ACP         0.7712
     27 N6         -1.7186    5.7437   -2.2844 N.pl3     1 ACP        -0.9461
     28 N1          0.3541    4.8807   -3.1087 N.ar      1 ACP        -0.7457
     29 C2          1.3913    4.0207   -2.9071 C.ar      1 ACP         0.7201
     30 N3          1.5770    3.1707   -1.8715 N.ar      1 ACP        -0.6849
     31 C4          0.5883    3.2318   -0.9747 C.ar      1 ACP         0.6369
     32 HOG2       -0.0682   -0.2306   -8.4186 H         1 ACP         0.4781
     33 HOG3       -2.1201   -3.3641   -7.6045 H         1 ACP         0.4781
     34 H3B1       -1.6180   -0.2654   -5.6273 H         1 ACP         0.1236
     35 H3B2       -0.6820   -1.3853   -4.6422 H         1 ACP         0.1236
     36 HOA2        4.9197   -1.5094   -3.6642 H         1 ACP         0.4716
     37 H5'1        1.2149   -0.0786   -2.0446 H         1 ACP         0.0529
     38 H5'2        2.4640   -1.3459   -2.1539 H         1 ACP         0.0529
     39 H4'         3.8049   -0.1388   -0.4009 H         1 ACP         0.1213
     40 H3'         1.6783   -1.7629    0.2715 H         1 ACP         0.0524
     41 HO3'        2.2232   -1.2979    2.3953 H         1 ACP         0.4707
     42 H2'        -0.0011    0.0027    0.0003 H         1 ACP         0.0774
     43 HO2'       -0.1563   -0.9855    2.0596 H         1 ACP         0.4561
     44 H1'         1.7826    1.9024    1.6451 H         1 ACP         0.1559
     45 H8         -1.0749    2.5601    1.6468 H         1 ACP         0.2754
     46 HN61       -2.4460    5.7038   -1.5992 H         1 ACP         0.4584
     47 HN62       -1.8079    6.3099   -3.1040 H         1 ACP         0.4584
     48 H2          2.1601    4.0194   -3.6712 H         1 ACP         0.0892
     49 H49        -2.1877    4.3195    0.2279 H         1 ACP         0.5039
@<TRIPOS>BOND
     1    1    2 2
     2    1    3 1
     3    1    4 1
     4    1    8 1
     5    3   32 1
     6    4   33 1
     7    5    6 2
     8    5    7 1
     9    5    8 1
    10    5   12 1
    11    8   34 1
    12    8   35 1
    13    9   10 2
    14    9   11 1
    15    9   12 1
    16    9   13 1
    17   11   36 1
    18   13   14 1
    19   14   15 1
    20   14   37 1
    21   14   38 1
    22   15   16 1
    23   15   17 1
    24   15   39 1
    25   16   21 1
    26   17   18 1
    27   17   19 1
    28   17   40 1
    29   18   41 1
    30   19   20 1
    31   19   21 1
    32   19   42 1
    33   20   43 1
    34   21   22 1
    35   21   44 1
    36   22   23 ar
    37   22   31 ar
    38   23   24 ar
    39   23   45 1
    40   24   25 ar
    41   24   49 1
    42   25   26 ar
    43   25   31 ar
    44   26   27 1
    45   26   28 ar
    46   27   46 1
    47   27   47 1
    48   28   29 ar
    49   29   30 ar
    50   29   48 1
    51   30   31 ar
@<TRIPOS>SUBSTRUCTURE
     1 ACP         1 GROUP 0 A     ****
@<TRIPOS>MOLECULE
[[5-(6-amino-7,8-dihydropurin-8-ylium-9-yl)-3,4-dihydroxy-tetrahydrofuran-2-yl]methoxy-hydroxy-phosphoryl]oxy-(phosphonomethyl)phosphinate
   49    51     1     0     0
SMALL
USER_CHARGES

@<TRIPOS>ATOM
      1 PG          0.8446   -4.8370    6.2671 P.3       1 ACP         1.6362
      2 O1G         0.2313   -5.9551    5.4790 O.2       1 ACP        -0.8691
      3 O2G         1.6407   -5.2812    7.6009 O.3       1 ACP        -0.8016
      4 O3G         1.9175   -3.9321    5.4671 O.3       1 ACP        -0.8016
      5 PB         -1.4275   -2.6340    5.7500 P.3       1 ACP         1.4874
      6 O1B        -0.5201   -1.8381    4.8406 O.co2     1 ACP        -0.8240
      7 O2B        -2.4864   -1.9786    6.6058 O.co2     1 ACP        -0.8240
      8 C3B        -0.3432   -3.6198    6.8787 C.3       1 ACP        -0.6510
      9 PA         -3.0212   -3.8715    3.6003 P.3       1 ACP         1.7966
     10 O1A        -4.3226   -3.1408    3.7625 O.2       1 ACP        -0.8436
     11 O2A        -3.1769   -5.4412    3.2407 O.3       1 ACP        -0.8190
     12 O3A        -2.0826   -3.8733    4.9174 O.3       1 ACP        -0.7947
     13 O5'        -2.0397   -3.2817    2.4572 O.3       1 ACP        -0.5846
     14 C5'        -0.7840   -3.8935    2.2172 C.3       1 ACP         0.2005
     15 C4'        -0.0724   -3.1466    1.1027 C.3       1 ACP         0.0711
     16 O4'        -0.8674   -3.1929   -0.0945 O.3       1 ACP        -0.4064
     17 C3'         0.1338   -1.6715    1.4027 C.3       1 ACP         0.0975
     18 O3'         1.2893   -1.4445    2.1808 O.3       1 ACP        -0.5957
     19 C2'         0.2158   -1.0724    0.0128 C.3       1 ACP         0.1195
     20 O2'         1.5141   -1.2448   -0.5513 O.3       1 ACP        -0.5845
     21 C1'        -0.7897   -1.9176   -0.7583 C.3       1 ACP         0.4064
     22 N9         -2.1040   -1.3333   -0.7704 N.pl3     1 ACP        -0.5630
     23 C8         -2.6611   -0.5376    0.1306 C.ar      1 ACP         0.2808
     24 N7         -3.9008   -0.1619   -0.1787 N.pl3     1 ACP        -0.5040
     25 C5         -4.1527   -0.7619   -1.3633 C.ar      1 ACP        -0.2807
     26 C6         -5.2376   -0.7682   -2.1896 C.ar      1 ACP         0.7712
     27 N6         -6.3842   -0.0312   -1.8286 N.pl3     1 ACP        -0.9461
     28 N1         -5.2214   -1.4713   -3.3433 N.ar      1 ACP        -0.7457
     29 C2         -4.0737   -2.1541   -3.6127 C.ar      1 ACP         0.7201
     30 N3         -2.9476   -2.2143   -2.8660 N.ar      1 ACP        -0.6849
     31 C4         -3.0383   -1.4958   -1.7429 C.ar      1 ACP         0.6369
     32 HOG2        2.0621   -4.5904    8.1553 H         1 ACP         0.4781
     33 HOG3        2.7203   -4.3598    5.1000 H         1 ACP         0.4781
     34 H3B1       -1.0192   -4.1461    7.5620 H         1 ACP         0.1236
     35 H3B2        0.2115   -2.8894    7.4787 H         1 ACP         0.1236
     36 HOA2       -3.6470   -5.6948    2.4181 H         1 ACP         0.4716
     37 H5'1       -0.1919   -3.8613    3.1376 H         1 ACP         0.0529
     38 H5'2       -0.9466   -4.9385    1.9341 H         1 ACP         0.0529
     39 H4'         0.8886   -3.6448    0.8780 H         1 ACP         0.1213
     40 H3'        -0.7374   -1.2358    1.9870 H         1 ACP         0.0524
     41 HO3'        1.3408   -0.4870    2.3219 H         1 ACP         0.4707
     42 H2'        -0.0384   -0.0310    0.0096 H         1 ACP         0.0774
     43 HO2'        2.1463   -0.7958    0.0370 H         1 ACP         0.4561
     44 H1'        -0.4769   -2.1002   -1.8093 H         1 ACP         0.1559
     45 H8         -2.1661   -0.2178    1.0311 H         1 ACP         0.2754
     46 HN61       -6.4010    0.4463   -0.9500 H         1 ACP         0.4584
     47 HN62       -7.1957   -0.0744   -2.4116 H         1 ACP         0.4584
     48 H2         -4.0645   -2.7171   -4.5389 H         1 ACP         0.0892
     49 H49        -4.5050    0.4395    0.3640 H         1 ACP         0.5039
@<TRIPOS>BOND
     1    1    2 2
     2    1    3 1
     3    1    4 1
     4    1    8 1
     5    3   32 1
     6    4   33 1
     7    5    6 2
     8    5    7 1
     9    5    8 1
    10    5   12 1
    11    8   34 1
    12    8   35 1
    13    9   10 2
    14    9   11 1
    15    9   12 1
    16    9   13 1
    17   11   36 1
    18   13   14 1
    19   14   15 1
    20   14   37 1
    21   14   38 1
    22   15   16 1
    23   15   17 1
    24   15   39 1
    25   16   21 1
    26   17   18 1
    27   17   19 1
    28   17   40 1
    29   18   41 1
    30   19   20 1
    31   19   21 1
    32   19   42 1
    33   20   43 1
    34   21   22 1
    35   21   44 1
    36   22   23 ar
    37   22   31 ar
    38   23   24 ar
    39   23   45 1
    40   24   25 ar
    41   24   49 1
    42   25   26 ar
    43   25   31 ar
    44   26   27 1
    45   26   28 ar
    46   27   46 1
    47   27   47 1
    48   28   29 ar
    49   29   30 ar
    50   29   48 1
    51   30   31 ar
@<TRIPOS>SUBSTRUCTURE
     1 ACP         1 GROUP 0 A     ****
@<TRIPOS>MOLECULE
[[5-(6-amino-7,8-dihydropurin-8-ylium-9-yl)-3,4-dihydroxy-tetrahydrofuran-2-yl]methoxy-hydroxy-phosphoryl]oxy-(phosphonomethyl)phosphinate
   49    51     1     0     0
SMALL
USER_CHARGES

@<TRIPOS>ATOM
      1 PG          1.7380    1.3523   -6.5217 P.3       1 ACP         1.6362
      2 O1G         2.5727    2.2218   -7.4133 O.2       1 ACP        -0.8691
      3 O2G         2.1310    1.3826   -4.9549 O.3       1 ACP        -0.8016
      4 O3G         0.1551    1.6748   -6.5235 O.3       1 ACP        -0.8016
      5 PB          0.8556   -1.6824   -5.9789 P.3       1 ACP         1.4874
      6 O1B         1.1540   -3.0226   -6.6100 O.co2     1 ACP        -0.8240
      7 O2B        -0.5548   -1.1658   -5.8137 O.co2     1 ACP        -0.8240
      8 C3B         1.7984   -0.4070   -6.9308 C.3       1 ACP        -0.6510
      9 PA          1.5750   -2.4621   -3.2281 P.3       1 ACP         1.7966
     10 O1A         1.9285   -3.9069   -3.4315 O.2       1 ACP        -0.8436
     11 O2A         0.0702   -2.2121   -2.6893 O.3       1 ACP        -0.8190
     12 O3A         1.6570   -1.5553   -4.5648 O.3       1 ACP        -0.7947
     13 O5'         2.5233   -1.6622   -2.1894 O.3       1 ACP        -0.5846
     14 C5'         2.2816   -0.2918   -1.9206 C.3       1 ACP         0.2005
     15 C4'         2.7248    0.0226   -0.4980 C.3       1 ACP         0.0711
     16 O4'         2.4697    1.4219   -0.2462 O.3       1 ACP        -0.4064
     17 C3'         1.9404   -0.7419    0.5596 C.3       1 ACP         0.0975
     18 O3'         2.7418   -0.8086    1.7389 O.3       1 ACP        -0.5957
     19 C2'         0.7477    0.1630    0.7858 C.3       1 ACP         0.1195
     20 O2'         0.1373   -0.0577    2.0407 O.3       1 ACP        -0.5845
     21 C1'         1.3733    1.5427    0.6747 C.3       1 ACP         0.4064
     22 N9          0.4520    2.5240    0.1767 N.pl3     1 ACP        -0.5630
     23 C8         -0.8602    2.5861    0.3496 C.ar      1 ACP         0.2808
     24 N7         -1.4308    3.6326   -0.2443 N.pl3     1 ACP        -0.5040
     25 C5         -0.4080    4.2856   -0.8394 C.ar      1 ACP        -0.2807
     26 C6         -0.3432    5.4196   -1.5943 C.ar      1 ACP         0.7712
     27 N6         -1.5276    6.1333   -1.8702 N.pl3     1 ACP        -0.9461
     28 N1          0.8395    5.8603   -2.0764 N.ar      1 ACP        -0.7457
     29 C2          1.9319    5.1095   -1.7617 C.ar      1 ACP         0.7201
     30 N3          1.9773    3.9761   -1.0249 N.ar      1 ACP        -0.6849
     31 C4          0.7724    3.6031   -0.5836 C.ar      1 ACP         0.6369
     32 HOG2        1.6178    0.8326   -4.3254 H         1 ACP         0.4781
     33 HOG3       -0.1489    2.5658   -6.2477 H         1 ACP         0.4781
     34 H3B1        1.4718   -0.5059   -7.9722 H         1 ACP         0.1236
     35 H3B2        2.8486   -0.7187   -6.8951 H         1 ACP         0.1236
     36 HOA2       -0.6855   -2.5235   -3.2316 H         1 ACP         0.4716
     37 H5'1        2.8428    0.3150   -2.6387 H         1 ACP         0.0529
     38 H5'2        1.2124   -0.0896   -2.0417 H         1 ACP         0.0529
     39 H4'         3.8049   -0.1388   -0.4009 H         1 ACP         0.1213
     40 H3'         1.6783   -1.7629    0.2715 H         1 ACP         0.0524
     41 HO3'        3.5554   -1.2733    1.4914 H         1 ACP         0.4707
     42 H2'        -0.0011    0.0027    0.0003 H         1 ACP         0.0774
     43 HO2'       -0.1563   -0.9855    2.0596 H         1 ACP         0.4561
     44 H1'         1.7826    1.9024    1.6451 H         1 ACP         0.1559
     45 H8         -1.4217    1.8638    0.9164 H         1 ACP         0.2754
     46 HN61       -2.4023    5.7711   -1.5477 H         1 ACP         0.4584
     47 HN62       -1.4856    6.9379   -2.4627 H         1 ACP         0.4584
     48 H2          2.8789    5.4660   -2.1503 H         1 ACP         0.0892
     49 H49        -2.4129    3.8706   -0.2402 H         1 ACP         0.5039
@<TRIPOS>BOND
     1    1    2 2
     2    1    3 1
     3    1    4 1
     4    1    8 1
     5    3   32 1
     6    4   33 1
     7    5    6 2
     8    5    7 1
     9    5    8 1
    10    5   12 1
    11    8   34 1
    12    8   35 1
    13    9   10 2
    14    9   11 1
    15    9   12 1
    16    9   13 1
    17   11   36 1
    18   13   14 1
    19   14   15 1
    20   14   37 1
    21   14   38 1
    22   15   16 1
    23   15   17 1
    24   15   39 1
    25   16   21 1
    26   17   18 1
    27   17   19 1
    28   17   40 1
    29   18   41 1
    30   19   20 1
    31   19   21 1
    32   19   42 1
    33   20   43 1
    34   21   22 1
    35   21   44 1
    36   22   23 ar
    37   22   31 ar
    38   23   24 ar
    39   23   45 1
    40   24   25 ar
    41   24   49 1
    42   25   26 ar
    43   25   31 ar
    44   26   27 1
    45   26   28 ar
    46   27   46 1
    47   27   47 1
    48   28   29 ar
    49   29   30 ar
    50   29   48 1
    51   30   31 ar
@<TRIPOS>SUBSTRUCTURE
     1 ACP         1 GROUP 0 A     ****
@<TRIPOS>MOLECULE
[[5-(6-amino-7,8-dihydropurin-8-ylium-9-yl)-3,4-dihydroxy-tetrahydrofuran-2-yl]methoxy-hydroxy-phosphoryl]oxy-(phosphonomethyl)phosphinate
   49    51     1     0     0
SMALL
USER_CHARGES

@<TRIPOS>ATOM
      1 PG         -6.1179   -5.8006    4.1611 P.3       1 ACP         1.6362
      2 O1G        -7.2155   -4.9162    4.6715 O.2       1 ACP        -0.8691
      3 O2G        -4.9084   -6.0759    5.1961 O.3       1 ACP        -0.8016
      4 O3G        -6.5757   -7.2821    3.7078 O.3       1 ACP        -0.8016
      5 PB         -3.8844   -6.0734    1.8763 P.3       1 ACP         1.4874
      6 O1B        -3.4395   -5.2401    0.6968 O.co2     1 ACP        -0.8240
      7 O2B        -4.3166   -7.5138    1.7280 O.co2     1 ACP        -0.8240
      8 C3B        -5.2730   -5.1660    2.6948 C.3       1 ACP        -0.6510
      9 PA         -1.2164   -6.3318    3.1041 P.3       1 ACP         1.7966
     10 O1A        -0.9212   -7.7774    2.8272 O.2       1 ACP        -0.8436
     11 O2A        -0.7238   -5.8156    4.5561 O.3       1 ACP        -0.8190
     12 O3A        -2.7876   -5.9491    3.0762 O.3       1 ACP        -0.7947
     13 O5'        -0.5702   -5.2849    2.0531 O.3       1 ACP        -0.5846
     14 C5'        -0.7840   -3.8935    2.2172 C.3       1 ACP         0.2005
     15 C4'        -0.0724   -3.1466    1.1027 C.3       1 ACP         0.0711
     16 O4'        -0.8674   -3.1929   -0.0945 O.3       1 ACP        -0.4064
     17 C3'         0.1338   -1.6715    1.4027 C.3       1 ACP         0.0975
     18 O3'         1.2893   -1.4445    2.1808 O.3       1 ACP        -0.5957
     19 C2'         0.2158   -1.0724    0.0128 C.3       1 ACP         0.1195
     20 O2'         1.5141   -1.2448   -0.5513 O.3       1 ACP        -0.5845
     21 C1'        -0.7897   -1.9176   -0.7583 C.3       1 ACP         0.4064
     22 N9         -2.1040   -1.3333   -0.7704 N.pl3     1 ACP        -0.5630
     23 C8         -3.2304   -1.8262   -0.2767 C.ar      1 ACP         0.2808
     24 N7         -4.2847   -1.0309   -0.4481 N.pl3     1 ACP        -0.5040
     25 C5         -3.7951    0.0479   -1.0985 C.ar      1 ACP        -0.2807
     26 C6         -4.3691    1.1983   -1.5536 C.ar      1 ACP         0.7712
     27 N6         -5.7501    1.4047   -1.3573 N.pl3     1 ACP        -0.9461
     28 N1         -3.6289    2.1345   -2.1869 N.ar      1 ACP        -0.7457
     29 C2         -2.3041    1.8525   -2.3333 C.ar      1 ACP         0.7201
     30 N3         -1.6387    0.7492   -1.9218 N.ar      1 ACP        -0.6849
     31 C4         -2.4348   -0.1293   -1.3053 C.ar      1 ACP         0.6369
     32 HOG2       -4.1629   -6.6480    4.9148 H         1 ACP         0.4781
     33 HOG3       -6.9952   -7.8731    4.3688 H         1 ACP         0.4781
     34 H3B1       -6.0362   -5.0223    1.9215 H         1 ACP         0.1236
     35 H3B2       -4.8803   -4.1735    2.9434 H         1 ACP         0.1236
     36 HOA2       -1.0851   -6.2462    5.3600 H         1 ACP         0.4716
     37 H5'1       -1.8600   -3.6935    2.1849 H         1 ACP         0.0529
     38 H5'2       -0.3935   -3.5870    3.1930 H         1 ACP         0.0529
     39 H4'         0.8886   -3.6448    0.8780 H         1 ACP         0.1213
     40 H3'        -0.7374   -1.2358    1.9870 H         1 ACP         0.0524
     41 HO3'        2.0374   -1.7816    1.6652 H         1 ACP         0.4707
     42 H2'        -0.0384   -0.0310    0.0096 H         1 ACP         0.0774
     43 HO2'        1.4998   -0.8412   -1.4369 H         1 ACP         0.4561
     44 H1'        -0.4769   -2.1002   -1.8093 H         1 ACP         0.1559
     45 H8         -3.2974   -2.7789    0.2194 H         1 ACP         0.2754
     46 HN61       -6.2956    0.6838   -0.9296 H         1 ACP         0.4584
     47 HN62       -6.1788    2.2266   -1.7327 H         1 ACP         0.4584
     48 H2         -1.7135    2.6057   -2.8421 H         1 ACP         0.0892
     49 H49        -5.2337   -1.2102   -0.1507 H         1 ACP         0.5039
@<TRIPOS>BOND
     1    1    2 2
     2    1    3 1
     3    1    4 1
     4    1    8 1
     5    3   32 1
     6    4   33 1
     7    5    6 2
     8    5    7 1
     9    5    8 1
    10    5   12 1
    11    8   34 1
    12    8   35 1
    13    9   10 2
    14    9   11 1
    15    9   12 1
    16    9   13 1
    17   11   36 1
    18   13   14 1
    19   14   15 1
    20   14   37 1
    21   14   38 1
    22   15   16 1
    23   15   17 1
    24   15   39 1
    25   16   21 1
    26   17   18 1
    27   17   19 1
    28   17   40 1
    29   18   41 1
    30   19   20 1
    31   19   21 1
    32   19   42 1
    33   20   43 1
    34   21   22 1
    35   21   44 1
    36   22   23 ar
    37   22   31 ar
    38   23   24 ar
    39   23   45 1
    40   24   25 ar
    41   24   49 1
    42   25   26 ar
    43   25   31 ar
    44   26   27 1
    45   26   28 ar
    46   27   46 1
    47   27   47 1
    48   28   29 ar
    49   29   30 ar
    50   29   48 1
    51   30   31 ar
@<TRIPOS>SUBSTRUCTURE
     1 ACP         1 GROUP 0 A     ****
@<TRIPOS>MOLECULE
[[5-(6-amino-7,8-dihydropurin-8-ylium-9-yl)-3,4-dihydroxy-tetrahydrofuran-2-yl]methoxy-hydroxy-phosphoryl]oxy-(phosphonomethyl)phosphinate
   49    51     1     0     0
SMALL
USER_CHARGES

@<TRIPOS>ATOM
      1 PG         -1.4783   -0.7565   -5.0536 P.3       1 ACP         1.6362
      2 O1G        -1.9277   -2.1840   -4.9652 O.2       1 ACP        -0.8691
      3 O2G        -2.6282    0.3123   -5.4351 O.3       1 ACP        -0.8016
      4 O3G        -0.8270   -0.1500   -3.7054 O.3       1 ACP        -0.8016
      5 PB          1.4486   -1.2882   -6.2508 P.3       1 ACP         1.4874
      6 O1B         2.2353   -0.7889   -7.4406 O.co2     1 ACP        -0.8240
      7 O2B         1.2008   -2.7590   -6.0085 O.co2     1 ACP        -0.8240
      8 C3B        -0.2020   -0.4546   -6.2971 C.3       1 ACP        -0.6510
      9 PA          3.4946   -0.6448   -4.2278 P.3       1 ACP         1.7966
     10 O1A         4.5894   -0.1038   -5.1010 O.2       1 ACP        -0.8436
     11 O2A         3.6755   -2.1987   -3.8153 O.3       1 ACP        -0.8190
     12 O3A         2.0199   -0.5952   -4.8900 O.3       1 ACP        -0.7947
     13 O5'         3.2874    0.1331   -2.8242 O.3       1 ACP        -0.5846
     14 C5'         2.2816   -0.2918   -1.9206 C.3       1 ACP         0.2005
     15 C4'         2.7248    0.0226   -0.4980 C.3       1 ACP         0.0711
     16 O4'         2.4697    1.4219   -0.2462 O.3       1 ACP        -0.4064
     17 C3'         1.9404   -0.7419    0.5596 C.3       1 ACP         0.0975
     18 O3'         2.7418   -0.8086    1.7389 O.3       1 ACP        -0.5957
     19 C2'         0.7477    0.1630    0.7858 C.3       1 ACP         0.1195
     20 O2'         0.1373   -0.0577    2.0407 O.3       1 ACP        -0.5845
     21 C1'         1.3733    1.5427    0.6747 C.3       1 ACP         0.4064
     22 N9          0.4520    2.5240    0.1767 N.pl3     1 ACP        -0.5630
     23 C8         -0.8252    2.3702   -0.1405 C.ar      1 ACP         0.2808
     24 N7         -1.4086    3.4861   -0.5739 N.pl3     1 ACP        -0.5040
     25 C5         -0.4324    4.4197   -0.5299 C.ar      1 ACP        -0.2807
     26 C6         -0.4006    5.7465   -0.8438 C.ar      1 ACP         0.7712
     27 N6         -1.5714    6.3708   -1.3211 N.pl3     1 ACP        -0.9461
     28 N1          0.7371    6.4615   -0.7020 N.ar      1 ACP        -0.7457
     29 C2          1.8196    5.7785   -0.2355 C.ar      1 ACP         0.7201
     30 N3          1.8948    4.4713    0.1036 N.ar      1 ACP        -0.6849
     31 C4          0.7337    3.8311   -0.0629 C.ar      1 ACP         0.6369
     32 HOG2       -3.4076    0.4024   -4.8465 H         1 ACP         0.4781
     33 HOG3       -0.5150    0.7800   -3.7049 H         1 ACP         0.4781
     34 H3B1       -0.6377   -0.7032   -7.2714 H         1 ACP         0.1236
     35 H3B2        0.0035    0.6219   -6.3051 H         1 ACP         0.1236
     36 HOA2        4.4752   -2.4663   -3.3143 H         1 ACP         0.4716
     37 H5'1        1.3494    0.2322   -2.1552 H         1 ACP         0.0529
     38 H5'2        2.1260   -1.3686   -2.0435 H         1 ACP         0.0529
     39 H4'         3.8049   -0.1388   -0.4009 H         1 ACP         0.1213
     40 H3'         1.6783   -1.7629    0.2715 H         1 ACP         0.0524
     41 HO3'        2.2232   -1.2979    2.3953 H         1 ACP         0.4707
     42 H2'        -0.0011    0.0027    0.0003 H         1 ACP         0.0774
     43 HO2'       -0.6141    0.5574    2.1082 H         1 ACP         0.4561
     44 H1'         1.7826    1.9024    1.6451 H         1 ACP         0.1559
     45 H8         -1.3516    1.4351   -0.0582 H         1 ACP         0.2754
     46 HN61       -2.3936    5.8204   -1.4664 H         1 ACP         0.4584
     47 HN62       -1.5348    7.3319   -1.5955 H         1 ACP         0.4584
     48 H2          2.7305    6.3553   -0.1232 H         1 ACP         0.0892
     49 H49        -2.3700    3.5931   -0.8665 H         1 ACP         0.5039
@<TRIPOS>BOND
     1    1    2 2
     2    1    3 1
     3    1    4 1
     4    1    8 1
     5    3   32 1
     6    4   33 1
     7    5    6 2
     8    5    7 1
     9    5    8 1
    10    5   12 1
    11    8   34 1
    12    8   35 1
    13    9   10 2
    14    9   11 1
    15    9   12 1
    16    9   13 1
    17   11   36 1
    18   13   14 1
    19   14   15 1
    20   14   37 1
    21   14   38 1
    22   15   16 1
    23   15   17 1
    24   15   39 1
    25   16   21 1
    26   17   18 1
    27   17   19 1
    28   17   40 1
    29   18   41 1
    30   19   20 1
    31   19   21 1
    32   19   42 1
    33   20   43 1
    34   21   22 1
    35   21   44 1
    36   22   23 ar
    37   22   31 ar
    38   23   24 ar
    39   23   45 1
    40   24   25 ar
    41   24   49 1
    42   25   26 ar
    43   25   31 ar
    44   26   27 1
    45   26   28 ar
    46   27   46 1
    47   27   47 1
    48   28   29 ar
    49   29   30 ar
    50   29   48 1
    51   30   31 ar
@<TRIPOS>SUBSTRUCTURE
     1 ACP         1 GROUP 0 A     ****
@<TRIPOS>MOLECULE
[[5-(6-amino-7,8-dihydropurin-8-ylium-9-yl)-3,4-dihydroxy-tetrahydrofuran-2-yl]methoxy-hydroxy-phosphoryl]oxy-(phosphonomethyl)phosphinate
   49    51     1     0     0
SMALL
USER_CHARGES

@<TRIPOS>ATOM
      1 PG          3.1243    0.4517   -7.1205 P.3       1 ACP         1.6362
      2 O1G         3.8936    0.6536   -5.8498 O.2       1 ACP        -0.8691
      3 O2G         2.9484    1.7660   -8.0434 O.3       1 ACP        -0.8016
      4 O3G         3.7369   -0.6464   -8.1348 O.3       1 ACP        -0.8016
      5 PB          1.0204   -1.7062   -6.0250 P.3       1 ACP         1.4874
      6 O1B         1.6708   -2.8171   -6.8164 O.co2     1 ACP        -0.8240
      7 O2B        -0.4610   -1.6897   -5.7272 O.co2     1 ACP        -0.8240
      8 C3B         1.4255   -0.1161   -6.8789 C.3       1 ACP        -0.6510
      9 PA          2.1858   -2.4502   -3.4210 P.3       1 ACP         1.7966
     10 O1A         2.9584   -3.6795   -3.8027 O.2       1 ACP        -0.8436
     11 O2A         0.7319   -2.7483   -2.7769 O.3       1 ACP        -0.8190
     12 O3A         1.8605   -1.4518   -4.6510 O.3       1 ACP        -0.7947
     13 O5'         2.9195   -1.4814   -2.3528 O.3       1 ACP        -0.5846
     14 C5'         2.2816   -0.2918   -1.9206 C.3       1 ACP         0.2005
     15 C4'         2.7248    0.0226   -0.4980 C.3       1 ACP         0.0711
     16 O4'         2.4697    1.4219   -0.2462 O.3       1 ACP        -0.4064
     17 C3'         1.9404   -0.7419    0.5596 C.3       1 ACP         0.0975
     18 O3'         2.7418   -0.8086    1.7389 O.3       1 ACP        -0.5957
     19 C2'         0.7477    0.1630    0.7858 C.3       1 ACP         0.1195
     20 O2'         0.1373   -0.0577    2.0407 O.3       1 ACP        -0.5845
     21 C1'         1.3733    1.5427    0.6747 C.3       1 ACP         0.4064
     22 N9          0.4520    2.5240    0.1767 N.pl3     1 ACP        -0.5630
     23 C8         -0.3477    3.3274    0.8626 C.ar      1 ACP         0.2808
     24 N7         -1.0836    4.1323    0.0983 N.pl3     1 ACP        -0.5040
     25 C5         -0.7273    3.8194   -1.1674 C.ar      1 ACP        -0.2807
     26 C6         -1.1208    4.2877   -2.3863 C.ar      1 ACP         0.7712
     27 N6         -2.0932    5.3066   -2.4528 N.pl3     1 ACP        -0.9461
     28 N1         -0.5892    3.7853   -3.5223 N.ar      1 ACP        -0.7457
     29 C2          0.3427    2.8040   -3.3648 C.ar      1 ACP         0.7201
     30 N3          0.8012    2.2709   -2.2093 N.ar      1 ACP        -0.6849
     31 C4          0.2307    2.8167   -1.1312 C.ar      1 ACP         0.6369
     32 HOG2        3.7493    2.2179   -8.3848 H         1 ACP         0.4781
     33 HOG3        3.2751   -0.8204   -8.9825 H         1 ACP         0.4781
     34 H3B1        0.9014    0.6677   -6.3206 H         1 ACP         0.1236
     35 H3B2        0.9531   -0.1746   -7.8661 H         1 ACP         0.1236
     36 HOA2        0.6780   -3.2767   -1.9523 H         1 ACP         0.4716
     37 H5'1        2.5577    0.5244   -2.5962 H         1 ACP         0.0529
     38 H5'2        1.1970   -0.4361   -1.9603 H         1 ACP         0.0529
     39 H4'         3.8049   -0.1388   -0.4009 H         1 ACP         0.1213
     40 H3'         1.6783   -1.7629    0.2715 H         1 ACP         0.0524
     41 HO3'        2.2232   -1.2979    2.3953 H         1 ACP         0.4707
     42 H2'        -0.0011    0.0027    0.0003 H         1 ACP         0.0774
     43 HO2'       -0.1563   -0.9855    2.0596 H         1 ACP         0.4561
     44 H1'         1.7826    1.9024    1.6451 H         1 ACP         0.1559
     45 H8         -0.4040    3.3373    1.9373 H         1 ACP         0.2754
     46 HN61       -2.5133    5.6366   -1.6073 H         1 ACP         0.4584
     47 HN62       -2.4153    5.6161   -3.3477 H         1 ACP         0.4584
     48 H2          0.7668    2.4032   -4.2782 H         1 ACP         0.0892
     49 H49        -1.7549    4.8194    0.4122 H         1 ACP         0.5039
@<TRIPOS>BOND
     1    1    2 2
     2    1    3 1
     3    1    4 1
     4    1    8 1
     5    3   32 1
     6    4   33 1
     7    5    6 2
     8    5    7 1
     9    5    8 1
    10    5   12 1
    11    8   34 1
    12    8   35 1
    13    9   10 2
    14    9   11 1
    15    9   12 1
    16    9   13 1
    17   11   36 1
    18   13   14 1
    19   14   15 1
    20   14   37 1
    21   14   38 1
    22   15   16 1
    23   15   17 1
    24   15   39 1
    25   16   21 1
    26   17   18 1
    27   17   19 1
    28   17   40 1
    29   18   41 1
    30   19   20 1
    31   19   21 1
    32   19   42 1
    33   20   43 1
    34   21   22 1
    35   21   44 1
    36   22   23 ar
    37   22   31 ar
    38   23   24 ar
    39   23   45 1
    40   24   25 ar
    41   24   49 1
    42   25   26 ar
    43   25   31 ar
    44   26   27 1
    45   26   28 ar
    46   27   46 1
    47   27   47 1
    48   28   29 ar
    49   29   30 ar
    50   29   48 1
    51   30   31 ar
@<TRIPOS>SUBSTRUCTURE
     1 ACP         1 GROUP 0 A     ****
@<TRIPOS>MOLECULE
[[5-(6-amino-7,8-dihydropurin-8-ylium-9-yl)-3,4-dihydroxy-tetrahydrofuran-2-yl]methoxy-hydroxy-phosphoryl]oxy-(phosphonomethyl)phosphinate
   49    51     1     0     0
SMALL
USER_CHARGES

@<TRIPOS>ATOM
      1 PG          2.4365    2.4561   -5.4376 P.3       1 ACP         1.6362
      2 O1G         2.7583    3.1612   -4.1544 O.2       1 ACP        -0.8691
      3 O2G         1.1527    1.4765   -5.3899 O.3       1 ACP        -0.8016
      4 O3G         2.1348    3.4178   -6.7002 O.3       1 ACP        -0.8016
      5 PB          4.4035   -0.0496   -5.0702 P.3       1 ACP         1.4874
      6 O1B         4.9481    0.5035   -3.7736 O.co2     1 ACP        -0.8240
      7 O2B         5.2451   -0.8860   -6.0060 O.co2     1 ACP        -0.8240
      8 C3B         3.7560    1.3817   -6.0467 C.3       1 ACP        -0.6510
      9 PA          2.6334   -2.0591   -3.8369 P.3       1 ACP         1.7966
     10 O1A         3.3655   -3.3238   -4.1808 O.2       1 ACP        -0.8436
     11 O2A         1.0224   -2.1730   -3.9317 O.3       1 ACP        -0.8190
     12 O3A         2.9834   -0.7995   -4.7890 O.3       1 ACP        -0.7947
     13 O5'         2.9195   -1.4814   -2.3528 O.3       1 ACP        -0.5846
     14 C5'         2.2816   -0.2918   -1.9206 C.3       1 ACP         0.2005
     15 C4'         2.7248    0.0226   -0.4980 C.3       1 ACP         0.0711
     16 O4'         2.4697    1.4219   -0.2462 O.3       1 ACP        -0.4064
     17 C3'         1.9404   -0.7419    0.5596 C.3       1 ACP         0.0975
     18 O3'         2.7418   -0.8086    1.7389 O.3       1 ACP        -0.5957
     19 C2'         0.7477    0.1630    0.7858 C.3       1 ACP         0.1195
     20 O2'         0.1373   -0.0577    2.0407 O.3       1 ACP        -0.5845
     21 C1'         1.3733    1.5427    0.6747 C.3       1 ACP         0.4064
     22 N9          0.4520    2.5240    0.1767 N.pl3     1 ACP        -0.5630
     23 C8          0.0623    3.6542    0.7479 C.ar      1 ACP         0.2808
     24 N7         -0.8074    4.3516    0.0193 N.pl3     1 ACP        -0.5040
     25 C5         -0.9855    3.6123   -1.0979 C.ar      1 ACP        -0.2807
     26 C6         -1.7474    3.7860   -2.2156 C.ar      1 ACP         0.7712
     27 N6         -2.5511    4.9389   -2.3303 N.pl3     1 ACP        -0.9461
     28 N1         -1.7375    2.8675   -3.2064 N.ar      1 ACP        -0.7457
     29 C2         -0.9330    1.7853   -3.0121 C.ar      1 ACP         0.7201
     30 N3         -0.1423    1.5179   -1.9478 N.ar      1 ACP        -0.6849
     31 C4         -0.2044    2.4690   -1.0113 C.ar      1 ACP         0.6369
     32 HOG2        1.1531    0.7225   -4.7625 H         1 ACP         0.4781
     33 HOG3        1.3883    4.0520   -6.6470 H         1 ACP         0.4781
     34 H3B1        3.4161    0.9656   -7.0018 H         1 ACP         0.1236
     35 H3B2        4.6232    2.0151   -6.2655 H         1 ACP         0.1236
     36 HOA2        0.5592   -2.8268   -3.3659 H         1 ACP         0.4716
     37 H5'1        2.5577    0.5244   -2.5962 H         1 ACP         0.0529
     38 H5'2        1.1970   -0.4361   -1.9603 H         1 ACP         0.0529
     39 H4'         3.8049   -0.1388   -0.4009 H         1 ACP         0.1213
     40 H3'         1.6783   -1.7629    0.2715 H         1 ACP         0.0524
     41 HO3'        2.2232   -1.2979    2.3953 H         1 ACP         0.4707
     42 H2'        -0.0011    0.0027    0.0003 H         1 ACP         0.0774
     43 HO2'       -0.6141    0.5574    2.1082 H         1 ACP         0.4561
     44 H1'         1.7826    1.9024    1.6451 H         1 ACP         0.1559
     45 H8          0.4111    3.9873    1.7100 H         1 ACP         0.2754
     46 HN61       -2.5859    5.5874   -1.5698 H         1 ACP         0.4584
     47 HN62       -3.1449    5.0423   -3.1284 H         1 ACP         0.4584
     48 H2         -0.9279    1.0504   -3.8088 H         1 ACP         0.0892
     49 H49        -1.2303    5.2364    0.2633 H         1 ACP         0.5039
@<TRIPOS>BOND
     1    1    2 2
     2    1    3 1
     3    1    4 1
     4    1    8 1
     5    3   32 1
     6    4   33 1
     7    5    6 2
     8    5    7 1
     9    5    8 1
    10    5   12 1
    11    8   34 1
    12    8   35 1
    13    9   10 2
    14    9   11 1
    15    9   12 1
    16    9   13 1
    17   11   36 1
    18   13   14 1
    19   14   15 1
    20   14   37 1
    21   14   38 1
    22   15   16 1
    23   15   17 1
    24   15   39 1
    25   16   21 1
    26   17   18 1
    27   17   19 1
    28   17   40 1
    29   18   41 1
    30   19   20 1
    31   19   21 1
    32   19   42 1
    33   20   43 1
    34   21   22 1
    35   21   44 1
    36   22   23 ar
    37   22   31 ar
    38   23   24 ar
    39   23   45 1
    40   24   25 ar
    41   24   49 1
    42   25   26 ar
    43   25   31 ar
    44   26   27 1
    45   26   28 ar
    46   27   46 1
    47   27   47 1
    48   28   29 ar
    49   29   30 ar
    50   29   48 1
    51   30   31 ar
@<TRIPOS>SUBSTRUCTURE
     1 ACP         1 GROUP 0 A     ****
@<TRIPOS>MOLECULE
[[5-(6-amino-7,8-dihydropurin-8-ylium-9-yl)-3,4-dihydroxy-tetrahydrofuran-2-yl]methoxy-hydroxy-phosphoryl]oxy-(phosphonomethyl)phosphinate
   49    51     1     0     0
SMALL
USER_CHARGES

@<TRIPOS>ATOM
      1 PG         -5.0788   -3.5041    3.3781 P.3       1 ACP         1.6362
      2 O1G        -4.0466   -3.3991    4.4603 O.2       1 ACP        -0.8691
      3 O2G        -6.5828   -3.1025    3.8102 O.3       1 ACP        -0.8016
      4 O3G        -4.8044   -2.5992    2.0683 O.3       1 ACP        -0.8016
      5 PB         -3.8844   -6.0734    1.8763 P.3       1 ACP         1.4874
      6 O1B        -3.4395   -5.2401    0.6968 O.co2     1 ACP        -0.8240
      7 O2B        -4.3166   -7.5138    1.7280 O.co2     1 ACP        -0.8240
      8 C3B        -5.2730   -5.1660    2.6948 C.3       1 ACP        -0.6510
      9 PA         -1.2164   -6.3318    3.1041 P.3       1 ACP         1.7966
     10 O1A        -0.9212   -7.7774    2.8272 O.2       1 ACP        -0.8436
     11 O2A        -0.7238   -5.8156    4.5561 O.3       1 ACP        -0.8190
     12 O3A        -2.7876   -5.9491    3.0762 O.3       1 ACP        -0.7947
     13 O5'        -0.5702   -5.2849    2.0531 O.3       1 ACP        -0.5846
     14 C5'        -0.7840   -3.8935    2.2172 C.3       1 ACP         0.2005
     15 C4'        -0.0724   -3.1466    1.1027 C.3       1 ACP         0.0711
     16 O4'        -0.8674   -3.1929   -0.0945 O.3       1 ACP        -0.4064
     17 C3'         0.1338   -1.6715    1.4027 C.3       1 ACP         0.0975
     18 O3'         1.2893   -1.4445    2.1808 O.3       1 ACP        -0.5957
     19 C2'         0.2158   -1.0724    0.0128 C.3       1 ACP         0.1195
     20 O2'         1.5141   -1.2448   -0.5513 O.3       1 ACP        -0.5845
     21 C1'        -0.7897   -1.9176   -0.7583 C.3       1 ACP         0.4064
     22 N9         -2.1040   -1.3333   -0.7704 N.pl3     1 ACP        -0.5630
     23 C8         -3.2304   -1.8262   -0.2767 C.ar      1 ACP         0.2808
     24 N7         -4.2847   -1.0309   -0.4481 N.pl3     1 ACP        -0.5040
     25 C5         -3.7951    0.0479   -1.0985 C.ar      1 ACP        -0.2807
     26 C6         -4.3691    1.1983   -1.5536 C.ar      1 ACP         0.7712
     27 N6         -5.7501    1.4047   -1.3573 N.pl3     1 ACP        -0.9461
     28 N1         -3.6289    2.1345   -2.1869 N.ar      1 ACP        -0.7457
     29 C2         -2.3041    1.8525   -2.3333 C.ar      1 ACP         0.7201
     30 N3         -1.6387    0.7492   -1.9218 N.ar      1 ACP        -0.6849
     31 C4         -2.4348   -0.1293   -1.3053 C.ar      1 ACP         0.6369
     32 HOG2       -7.2989   -3.1526    3.1416 H         1 ACP         0.4781
     33 HOG3       -4.7415   -1.6253    2.1680 H         1 ACP         0.4781
     34 H3B1       -5.6142   -5.8113    3.5121 H         1 ACP         0.1236
     35 H3B2       -6.0842   -5.1279    1.9588 H         1 ACP         0.1236
     36 HOA2        0.2301   -5.8662    4.7788 H         1 ACP         0.4716
     37 H5'1       -1.8600   -3.6935    2.1849 H         1 ACP         0.0529
     38 H5'2       -0.3935   -3.5870    3.1930 H         1 ACP         0.0529
     39 H4'         0.8886   -3.6448    0.8780 H         1 ACP         0.1213
     40 H3'        -0.7374   -1.2358    1.9870 H         1 ACP         0.0524
     41 HO3'        1.3408   -0.4870    2.3219 H         1 ACP         0.4707
     42 H2'        -0.0384   -0.0310    0.0096 H         1 ACP         0.0774
     43 HO2'        2.1463   -0.7958    0.0370 H         1 ACP         0.4561
     44 H1'        -0.4769   -2.1002   -1.8093 H         1 ACP         0.1559
     45 H8         -3.2974   -2.7789    0.2194 H         1 ACP         0.2754
     46 HN61       -6.2956    0.6838   -0.9296 H         1 ACP         0.4584
     47 HN62       -6.1788    2.2266   -1.7327 H         1 ACP         0.4584
     48 H2         -1.7135    2.6057   -2.8421 H         1 ACP         0.0892
     49 H49        -5.2337   -1.2102   -0.1507 H         1 ACP         0.5039
@<TRIPOS>BOND
     1    1    2 2
     2    1    3 1
     3    1    4 1
     4    1    8 1
     5    3   32 1
     6    4   33 1
     7    5    6 2
     8    5    7 1
     9    5    8 1
    10    5   12 1
    11    8   34 1
    12    8   35 1
    13    9   10 2
    14    9   11 1
    15    9   12 1
    16    9   13 1
    17   11   36 1
    18   13   14 1
    19   14   15 1
    20   14   37 1
    21   14   38 1
    22   15   16 1
    23   15   17 1
    24   15   39 1
    25   16   21 1
    26   17   18 1
    27   17   19 1
    28   17   40 1
    29   18   41 1
    30   19   20 1
    31   19   21 1
    32   19   42 1
    33   20   43 1
    34   21   22 1
    35   21   44 1
    36   22   23 ar
    37   22   31 ar
    38   23   24 ar
    39   23   45 1
    40   24   25 ar
    41   24   49 1
    42   25   26 ar
    43   25   31 ar
    44   26   27 1
    45   26   28 ar
    46   27   46 1
    47   27   47 1
    48   28   29 ar
    49   29   30 ar
    50   29   48 1
    51   30   31 ar
@<TRIPOS>SUBSTRUCTURE
     1 ACP         1 GROUP 0 A     ****
@<TRIPOS>MOLECULE
[[5-(6-amino-7,8-dihydropurin-8-ylium-9-yl)-3,4-dihydroxy-tetrahydrofuran-2-yl]methoxy-hydroxy-phosphoryl]oxy-(phosphonomethyl)phosphinate
   49    51     1     0     0
SMALL
USER_CHARGES

@<TRIPOS>ATOM
      1 PG         -0.3857    1.3419   -6.2239 P.3       1 ACP         1.6362
      2 O1G         0.1698    1.9684   -4.9804 O.2       1 ACP        -0.8691
      3 O2G        -1.9675    1.5632   -6.4673 O.3       1 ACP        -0.8016
      4 O3G         0.2852    1.8355   -7.6081 O.3       1 ACP        -0.8016
      5 PB          1.4486   -1.2882   -6.2508 P.3       1 ACP         1.4874
      6 O1B         2.2353   -0.7889   -7.4406 O.co2     1 ACP        -0.8240
      7 O2B         1.2008   -2.7590   -6.0085 O.co2     1 ACP        -0.8240
      8 C3B        -0.2020   -0.4546   -6.2971 C.3       1 ACP        -0.6510
      9 PA          3.4946   -0.6448   -4.2278 P.3       1 ACP         1.7966
     10 O1A         4.5894   -0.1038   -5.1010 O.2       1 ACP        -0.8436
     11 O2A         3.6755   -2.1987   -3.8153 O.3       1 ACP        -0.8190
     12 O3A         2.0199   -0.5952   -4.8900 O.3       1 ACP        -0.7947
     13 O5'         3.2874    0.1331   -2.8242 O.3       1 ACP        -0.5846
     14 C5'         2.2816   -0.2918   -1.9206 C.3       1 ACP         0.2005
     15 C4'         2.7248    0.0226   -0.4980 C.3       1 ACP         0.0711
     16 O4'         2.4697    1.4219   -0.2462 O.3       1 ACP        -0.4064
     17 C3'         1.9404   -0.7419    0.5596 C.3       1 ACP         0.0975
     18 O3'         2.7418   -0.8086    1.7389 O.3       1 ACP        -0.5957
     19 C2'         0.7477    0.1630    0.7858 C.3       1 ACP         0.1195
     20 O2'         0.1373   -0.0577    2.0407 O.3       1 ACP        -0.5845
     21 C1'         1.3733    1.5427    0.6747 C.3       1 ACP         0.4064
     22 N9          0.4520    2.5240    0.1767 N.pl3     1 ACP        -0.5630
     23 C8         -0.8252    2.3702   -0.1405 C.ar      1 ACP         0.2808
     24 N7         -1.4086    3.4861   -0.5739 N.pl3     1 ACP        -0.5040
     25 C5         -0.4324    4.4197   -0.5299 C.ar      1 ACP        -0.2807
     26 C6         -0.4006    5.7465   -0.8438 C.ar      1 ACP         0.7712
     27 N6         -1.5714    6.3708   -1.3211 N.pl3     1 ACP        -0.9461
     28 N1          0.7371    6.4615   -0.7020 N.ar      1 ACP        -0.7457
     29 C2          1.8196    5.7785   -0.2355 C.ar      1 ACP         0.7201
     30 N3          1.8948    4.4713    0.1036 N.ar      1 ACP        -0.6849
     31 C4          0.7337    3.8311   -0.0629 C.ar      1 ACP         0.6369
     32 HOG2       -2.3845    1.1750   -7.2658 H         1 ACP         0.4781
     33 HOG3        0.2401    2.7862   -7.8457 H         1 ACP         0.4781
     34 H3B1       -0.7729   -0.8701   -5.4591 H         1 ACP         0.1236
     35 H3B2       -0.6887   -0.7993   -7.2166 H         1 ACP         0.1236
     36 HOA2        4.4752   -2.4663   -3.3143 H         1 ACP         0.4716
     37 H5'1        1.3494    0.2322   -2.1552 H         1 ACP         0.0529
     38 H5'2        2.1260   -1.3686   -2.0435 H         1 ACP         0.0529
     39 H4'         3.8049   -0.1388   -0.4009 H         1 ACP         0.1213
     40 H3'         1.6783   -1.7629    0.2715 H         1 ACP         0.0524
     41 HO3'        2.2232   -1.2979    2.3953 H         1 ACP         0.4707
     42 H2'        -0.0011    0.0027    0.0003 H         1 ACP         0.0774
     43 HO2'       -0.6141    0.5574    2.1082 H         1 ACP         0.4561
     44 H1'         1.7826    1.9024    1.6451 H         1 ACP         0.1559
     45 H8         -1.3516    1.4351   -0.0582 H         1 ACP         0.2754
     46 HN61       -2.3936    5.8204   -1.4664 H         1 ACP         0.4584
     47 HN62       -1.5348    7.3319   -1.5955 H         1 ACP         0.4584
     48 H2          2.7305    6.3553   -0.1232 H         1 ACP         0.0892
     49 H49        -2.3700    3.5931   -0.8665 H         1 ACP         0.5039
@<TRIPOS>BOND
     1    1    2 2
     2    1    3 1
     3    1    4 1
     4    1    8 1
     5    3   32 1
     6    4   33 1
     7    5    6 2
     8    5    7 1
     9    5    8 1
    10    5   12 1
    11    8   34 1
    12    8   35 1
    13    9   10 2
    14    9   11 1
    15    9   12 1
    16    9   13 1
    17   11   36 1
    18   13   14 1
    19   14   15 1
    20   14   37 1
    21   14   38 1
    22   15   16 1
    23   15   17 1
    24   15   39 1
    25   16   21 1
    26   17   18 1
    27   17   19 1
    28   17   40 1
    29   18   41 1
    30   19   20 1
    31   19   21 1
    32   19   42 1
    33   20   43 1
    34   21   22 1
    35   21   44 1
    36   22   23 ar
    37   22   31 ar
    38   23   24 ar
    39   23   45 1
    40   24   25 ar
    41   24   49 1
    42   25   26 ar
    43   25   31 ar
    44   26   27 1
    45   26   28 ar
    46   27   46 1
    47   27   47 1
    48   28   29 ar
    49   29   30 ar
    50   29   48 1
    51   30   31 ar
@<TRIPOS>SUBSTRUCTURE
     1 ACP         1 GROUP 0 A     ****
@<TRIPOS>MOLECULE
[[5-(6-amino-7,8-dihydropurin-8-ylium-9-yl)-3,4-dihydroxy-tetrahydrofuran-2-yl]methoxy-hydroxy-phosphoryl]oxy-(phosphonomethyl)phosphinate
   49    51     1     0     0
SMALL
USER_CHARGES

@<TRIPOS>ATOM
      1 PG         -0.9862   -2.0993   -4.3699 P.3       1 ACP         1.6362
      2 O1G         0.2028   -2.9529   -4.0461 O.2       1 ACP        -0.8691
      3 O2G        -2.2400   -2.8748   -5.0307 O.3       1 ACP        -0.8016
      4 O3G        -1.6401   -1.3172   -3.1166 O.3       1 ACP        -0.8016
      5 PB          0.5959    0.5556   -5.2253 P.3       1 ACP         1.4874
      6 O1B         0.1608    1.2796   -3.9723 O.co2     1 ACP        -0.8240
      7 O2B         0.8323    1.2771   -6.5318 O.co2     1 ACP        -0.8240
      8 C3B        -0.6497   -0.7728   -5.5504 C.3       1 ACP        -0.6510
      9 PA          3.3384   -0.0297   -4.3151 P.3       1 ACP         1.7966
     10 O1A         4.1258    0.9106   -5.1809 O.2       1 ACP        -0.8436
     11 O2A         4.0360   -1.4716   -4.0883 O.3       1 ACP        -0.8190
     12 O3A         1.8718   -0.4013   -4.8868 O.3       1 ACP        -0.7947
     13 O5'         3.0190    0.5130   -2.8246 O.3       1 ACP        -0.5846
     14 C5'         2.2816   -0.2918   -1.9206 C.3       1 ACP         0.2005
     15 C4'         2.7248    0.0226   -0.4980 C.3       1 ACP         0.0711
     16 O4'         2.4697    1.4219   -0.2462 O.3       1 ACP        -0.4064
     17 C3'         1.9404   -0.7419    0.5596 C.3       1 ACP         0.0975
     18 O3'         2.7418   -0.8086    1.7389 O.3       1 ACP        -0.5957
     19 C2'         0.7477    0.1630    0.7858 C.3       1 ACP         0.1195
     20 O2'         0.1373   -0.0577    2.0407 O.3       1 ACP        -0.5845
     21 C1'         1.3733    1.5427    0.6747 C.3       1 ACP         0.4064
     22 N9          0.4520    2.5240    0.1767 N.pl3     1 ACP        -0.5630
     23 C8         -0.5899    2.3466   -0.6224 C.ar      1 ACP         0.2808
     24 N7         -1.2514    3.4689   -0.8989 N.pl3     1 ACP        -0.5040
     25 C5         -0.5826    4.4323   -0.2272 C.ar      1 ACP        -0.2807
     26 C6         -0.7636    5.7789   -0.1086 C.ar      1 ACP         0.7712
     27 N6         -1.8382    6.3927   -0.7843 N.pl3     1 ACP        -0.9461
     28 N1          0.0741    6.5233    0.6461 N.ar      1 ACP        -0.7457
     29 C2          1.0845    5.8486    1.2626 C.ar      1 ACP         0.7201
     30 N3          1.3516    4.5236    1.2116 N.ar      1 ACP        -0.6849
     31 C4          0.4827    3.8546    0.4481 C.ar      1 ACP         0.6369
     32 HOG2       -2.6678   -3.6010   -4.5290 H         1 ACP         0.4781
     33 HOG3       -2.4209   -0.7435   -3.2692 H         1 ACP         0.4781
     34 H3B1       -0.3448   -1.2484   -6.4894 H         1 ACP         0.1236
     35 H3B2       -1.5967   -0.2573   -5.7469 H         1 ACP         0.1236
     36 HOA2        4.2237   -2.0356   -4.8687 H         1 ACP         0.4716
     37 H5'1        1.2149   -0.0786   -2.0446 H         1 ACP         0.0529
     38 H5'2        2.4640   -1.3459   -2.1539 H         1 ACP         0.0529
     39 H4'         3.8049   -0.1388   -0.4009 H         1 ACP         0.1213
     40 H3'         1.6783   -1.7629    0.2715 H         1 ACP         0.0524
     41 HO3'        2.9083    0.1071    2.0092 H         1 ACP         0.4707
     42 H2'        -0.0011    0.0027    0.0003 H         1 ACP         0.0774
     43 HO2'       -0.6141    0.5574    2.1082 H         1 ACP         0.4561
     44 H1'         1.7826    1.9024    1.6451 H         1 ACP         0.1559
     45 H8         -0.8833    1.3888   -1.0158 H         1 ACP         0.2754
     46 HN61       -2.4225    5.8385   -1.3773 H         1 ACP         0.4584
     47 HN62       -1.9421    7.3862   -0.7348 H         1 ACP         0.4584
     48 H2          1.7546    6.4491    1.8670 H         1 ACP         0.0892
     49 H49        -2.0705    3.5612   -1.4834 H         1 ACP         0.5039
@<TRIPOS>BOND
     1    1    2 2
     2    1    3 1
     3    1    4 1
     4    1    8 1
     5    3   32 1
     6    4   33 1
     7    5    6 2
     8    5    7 1
     9    5    8 1
    10    5   12 1
    11    8   34 1
    12    8   35 1
    13    9   10 2
    14    9   11 1
    15    9   12 1
    16    9   13 1
    17   11   36 1
    18   13   14 1
    19   14   15 1
    20   14   37 1
    21   14   38 1
    22   15   16 1
    23   15   17 1
    24   15   39 1
    25   16   21 1
    26   17   18 1
    27   17   19 1
    28   17   40 1
    29   18   41 1
    30   19   20 1
    31   19   21 1
    32   19   42 1
    33   20   43 1
    34   21   22 1
    35   21   44 1
    36   22   23 ar
    37   22   31 ar
    38   23   24 ar
    39   23   45 1
    40   24   25 ar
    41   24   49 1
    42   25   26 ar
    43   25   31 ar
    44   26   27 1
    45   26   28 ar
    46   27   46 1
    47   27   47 1
    48   28   29 ar
    49   29   30 ar
    50   29   48 1
    51   30   31 ar
@<TRIPOS>SUBSTRUCTURE
     1 ACP         1 GROUP 0 A     ****
@<TRIPOS>MOLECULE
[[5-(6-amino-7,8-dihydropurin-8-ylium-9-yl)-3,4-dihydroxy-tetrahydrofuran-2-yl]methoxy-hydroxy-phosphoryl]oxy-(phosphonomethyl)phosphinate
   49    51     1     0     0
SMALL
USER_CHARGES

@<TRIPOS>ATOM
      1 PG          5.3172    1.9214   -4.3355 P.3       1 ACP         1.6362
      2 O1G         3.9153    1.8526   -4.8622 O.2       1 ACP        -0.8691
      3 O2G         6.3021    2.9411   -5.1102 O.3       1 ACP        -0.8016
      4 O3G         5.4552    2.3613   -2.7872 O.3       1 ACP        -0.8016
      5 PB          5.6296   -1.1607   -3.5072 P.3       1 ACP         1.4874
      6 O1B         5.5803   -0.8227   -2.0352 O.co2     1 ACP        -0.8240
      7 O2B         6.4275   -2.3284   -4.0395 O.co2     1 ACP        -0.8240
      8 C3B         6.2124    0.3525   -4.3971 C.3       1 ACP        -0.6510
      9 PA          2.8566   -2.1440   -3.6977 P.3       1 ACP         1.7966
     10 O1A         3.0940   -3.6176   -3.8586 O.2       1 ACP        -0.8436
     11 O2A         1.6428   -1.5611   -4.5945 O.3       1 ACP        -0.8190
     12 O3A         4.1138   -1.2120   -4.1056 O.3       1 ACP        -0.7947
     13 O5'         2.5233   -1.6622   -2.1894 O.3       1 ACP        -0.5846
     14 C5'         2.2816   -0.2918   -1.9206 C.3       1 ACP         0.2005
     15 C4'         2.7248    0.0226   -0.4980 C.3       1 ACP         0.0711
     16 O4'         2.4697    1.4219   -0.2462 O.3       1 ACP        -0.4064
     17 C3'         1.9404   -0.7419    0.5596 C.3       1 ACP         0.0975
     18 O3'         2.7418   -0.8086    1.7389 O.3       1 ACP        -0.5957
     19 C2'         0.7477    0.1630    0.7858 C.3       1 ACP         0.1195
     20 O2'         0.1373   -0.0577    2.0407 O.3       1 ACP        -0.5845
     21 C1'         1.3733    1.5427    0.6747 C.3       1 ACP         0.4064
     22 N9          0.4520    2.5240    0.1767 N.pl3     1 ACP        -0.5630
     23 C8         -0.5899    2.3466   -0.6224 C.ar      1 ACP         0.2808
     24 N7         -1.2514    3.4689   -0.8989 N.pl3     1 ACP        -0.5040
     25 C5         -0.5826    4.4323   -0.2272 C.ar      1 ACP        -0.2807
     26 C6         -0.7636    5.7789   -0.1086 C.ar      1 ACP         0.7712
     27 N6         -1.8382    6.3927   -0.7843 N.pl3     1 ACP        -0.9461
     28 N1          0.0741    6.5233    0.6461 N.ar      1 ACP        -0.7457
     29 C2          1.0845    5.8486    1.2626 C.ar      1 ACP         0.7201
     30 N3          1.3516    4.5236    1.2116 N.ar      1 ACP        -0.6849
     31 C4          0.4827    3.8546    0.4481 C.ar      1 ACP         0.6369
     32 HOG2        7.2313    3.0265   -4.8079 H         1 ACP         0.4781
     33 HOG3        5.1116    3.2371   -2.5094 H         1 ACP         0.4781
     34 H3B1        6.2916    0.0693   -5.4528 H         1 ACP         0.1236
     35 H3B2        7.2315    0.5393   -4.0399 H         1 ACP         0.1236
     36 HOA2        1.6914   -1.6457   -5.5706 H         1 ACP         0.4716
     37 H5'1        2.8428    0.3150   -2.6387 H         1 ACP         0.0529
     38 H5'2        1.2124   -0.0896   -2.0417 H         1 ACP         0.0529
     39 H4'         3.8049   -0.1388   -0.4009 H         1 ACP         0.1213
     40 H3'         1.6783   -1.7629    0.2715 H         1 ACP         0.0524
     41 HO3'        2.2232   -1.2979    2.3953 H         1 ACP         0.4707
     42 H2'        -0.0011    0.0027    0.0003 H         1 ACP         0.0774
     43 HO2'       -0.6141    0.5574    2.1082 H         1 ACP         0.4561
     44 H1'         1.7826    1.9024    1.6451 H         1 ACP         0.1559
     45 H8         -0.8833    1.3888   -1.0158 H         1 ACP         0.2754
     46 HN61       -1.9982    7.3720   -0.6591 H         1 ACP         0.4584
     47 HN62       -2.4782    5.8240   -1.3014 H         1 ACP         0.4584
     48 H2          1.7546    6.4491    1.8670 H         1 ACP         0.0892
     49 H49        -2.0705    3.5612   -1.4834 H         1 ACP         0.5039
@<TRIPOS>BOND
     1    1    2 2
     2    1    3 1
     3    1    4 1
     4    1    8 1
     5    3   32 1
     6    4   33 1
     7    5    6 2
     8    5    7 1
     9    5    8 1
    10    5   12 1
    11    8   34 1
    12    8   35 1
    13    9   10 2
    14    9   11 1
    15    9   12 1
    16    9   13 1
    17   11   36 1
    18   13   14 1
    19   14   15 1
    20   14   37 1
    21   14   38 1
    22   15   16 1
    23   15   17 1
    24   15   39 1
    25   16   21 1
    26   17   18 1
    27   17   19 1
    28   17   40 1
    29   18   41 1
    30   19   20 1
    31   19   21 1
    32   19   42 1
    33   20   43 1
    34   21   22 1
    35   21   44 1
    36   22   23 ar
    37   22   31 ar
    38   23   24 ar
    39   23   45 1
    40   24   25 ar
    41   24   49 1
    42   25   26 ar
    43   25   31 ar
    44   26   27 1
    45   26   28 ar
    46   27   46 1
    47   27   47 1
    48   28   29 ar
    49   29   30 ar
    50   29   48 1
    51   30   31 ar
@<TRIPOS>SUBSTRUCTURE
     1 ACP         1 GROUP 0 A     ****
@<TRIPOS>MOLECULE
[[5-(6-amino-7,8-dihydropurin-8-ylium-9-yl)-3,4-dihydroxy-tetrahydrofuran-2-yl]methoxy-hydroxy-phosphoryl]oxy-(phosphonomethyl)phosphinate
   49    51     1     0     0
SMALL
USER_CHARGES

@<TRIPOS>ATOM
      1 PG          0.7328   -0.3021   -7.7057 P.3       1 ACP         1.6362
      2 O1G        -0.4820   -0.8532   -7.0218 O.2       1 ACP        -0.8691
      3 O2G         1.3982   -1.2620   -8.8219 O.3       1 ACP        -0.8016
      4 O3G         0.5147    1.0953   -8.4866 O.3       1 ACP        -0.8016
      5 PB          2.9157   -1.2385   -5.5514 P.3       1 ACP         1.4874
      6 O1B         4.0158   -0.5631   -4.7659 O.co2     1 ACP        -0.8240
      7 O2B         3.1771   -2.4304   -6.4428 O.co2     1 ACP        -0.8240
      8 C3B         2.1115    0.0601   -6.5946 C.3       1 ACP        -0.6510
      9 PA          1.5750   -2.4621   -3.2281 P.3       1 ACP         1.7966
     10 O1A         1.9285   -3.9069   -3.4315 O.2       1 ACP        -0.8436
     11 O2A         0.0702   -2.2121   -2.6893 O.3       1 ACP        -0.8190
     12 O3A         1.6570   -1.5553   -4.5648 O.3       1 ACP        -0.7947
     13 O5'         2.5233   -1.6622   -2.1894 O.3       1 ACP        -0.5846
     14 C5'         2.2816   -0.2918   -1.9206 C.3       1 ACP         0.2005
     15 C4'         2.7248    0.0226   -0.4980 C.3       1 ACP         0.0711
     16 O4'         2.4697    1.4219   -0.2462 O.3       1 ACP        -0.4064
     17 C3'         1.9404   -0.7419    0.5596 C.3       1 ACP         0.0975
     18 O3'         2.7418   -0.8086    1.7389 O.3       1 ACP        -0.5957
     19 C2'         0.7477    0.1630    0.7858 C.3       1 ACP         0.1195
     20 O2'         0.1373   -0.0577    2.0407 O.3       1 ACP        -0.5845
     21 C1'         1.3733    1.5427    0.6747 C.3       1 ACP         0.4064
     22 N9          0.4520    2.5240    0.1767 N.pl3     1 ACP        -0.5630
     23 C8         -0.8602    2.5861    0.3496 C.ar      1 ACP         0.2808
     24 N7         -1.4308    3.6326   -0.2443 N.pl3     1 ACP        -0.5040
     25 C5         -0.4080    4.2856   -0.8394 C.ar      1 ACP        -0.2807
     26 C6         -0.3432    5.4196   -1.5943 C.ar      1 ACP         0.7712
     27 N6         -1.5276    6.1333   -1.8702 N.pl3     1 ACP        -0.9461
     28 N1          0.8395    5.8603   -2.0764 N.ar      1 ACP        -0.7457
     29 C2          1.9319    5.1095   -1.7617 C.ar      1 ACP         0.7201
     30 N3          1.9773    3.9761   -1.0249 N.ar      1 ACP        -0.6849
     31 C4          0.7724    3.6031   -0.5836 C.ar      1 ACP         0.6369
     32 HOG2        1.7254   -2.1470   -8.5538 H         1 ACP         0.4781
     33 HOG3       -0.1404    1.1352   -9.2156 H         1 ACP         0.4781
     34 H3B1        2.9112    0.4934   -7.2059 H         1 ACP         0.1236
     35 H3B2        1.7806    0.8421   -5.9016 H         1 ACP         0.1236
     36 HOA2       -0.1963   -2.6013   -1.8292 H         1 ACP         0.4716
     37 H5'1        2.8428    0.3150   -2.6387 H         1 ACP         0.0529
     38 H5'2        1.2124   -0.0896   -2.0417 H         1 ACP         0.0529
     39 H4'         3.8049   -0.1388   -0.4009 H         1 ACP         0.1213
     40 H3'         1.6783   -1.7629    0.2715 H         1 ACP         0.0524
     41 HO3'        2.2232   -1.2979    2.3953 H         1 ACP         0.4707
     42 H2'        -0.0011    0.0027    0.0003 H         1 ACP         0.0774
     43 HO2'       -0.1563   -0.9855    2.0596 H         1 ACP         0.4561
     44 H1'         1.7826    1.9024    1.6451 H         1 ACP         0.1559
     45 H8         -1.4217    1.8638    0.9164 H         1 ACP         0.2754
     46 HN61       -2.4023    5.7711   -1.5477 H         1 ACP         0.4584
     47 HN62       -1.4856    6.9379   -2.4627 H         1 ACP         0.4584
     48 H2          2.8789    5.4660   -2.1503 H         1 ACP         0.0892
     49 H49        -2.4129    3.8706   -0.2402 H         1 ACP         0.5039
@<TRIPOS>BOND
     1    1    2 2
     2    1    3 1
     3    1    4 1
     4    1    8 1
     5    3   32 1
     6    4   33 1
     7    5    6 2
     8    5    7 1
     9    5    8 1
    10    5   12 1
    11    8   34 1
    12    8   35 1
    13    9   10 2
    14    9   11 1
    15    9   12 1
    16    9   13 1
    17   11   36 1
    18   13   14 1
    19   14   15 1
    20   14   37 1
    21   14   38 1
    22   15   16 1
    23   15   17 1
    24   15   39 1
    25   16   21 1
    26   17   18 1
    27   17   19 1
    28   17   40 1
    29   18   41 1
    30   19   20 1
    31   19   21 1
    32   19   42 1
    33   20   43 1
    34   21   22 1
    35   21   44 1
    36   22   23 ar
    37   22   31 ar
    38   23   24 ar
    39   23   45 1
    40   24   25 ar
    41   24   49 1
    42   25   26 ar
    43   25   31 ar
    44   26   27 1
    45   26   28 ar
    46   27   46 1
    47   27   47 1
    48   28   29 ar
    49   29   30 ar
    50   29   48 1
    51   30   31 ar
@<TRIPOS>SUBSTRUCTURE
     1 ACP         1 GROUP 0 A     ****
@<TRIPOS>MOLECULE
[[5-(6-amino-7,8-dihydropurin-8-ylium-9-yl)-3,4-dihydroxy-tetrahydrofuran-2-yl]methoxy-hydroxy-phosphoryl]oxy-(phosphonomethyl)phosphinate
   49    51     1     0     0
SMALL
USER_CHARGES

@<TRIPOS>ATOM
      1 PG          7.3458   -0.4674   -3.5410 P.3       1 ACP         1.6362
      2 O1G         8.0743   -1.7654   -3.7192 O.2       1 ACP        -0.8691
      3 O2G         6.3327   -0.4053   -2.2840 O.3       1 ACP        -0.8016
      4 O3G         8.2841    0.8320   -3.3382 O.3       1 ACP        -0.8016
      5 PB          4.8982   -1.0581   -5.5267 P.3       1 ACP         1.4874
      6 O1B         5.4808   -2.3930   -5.9293 O.co2     1 ACP        -0.8240
      7 O2B         4.0737   -0.2196   -6.4757 O.co2     1 ACP        -0.8240
      8 C3B         6.3000   -0.0035   -4.9402 C.3       1 ACP        -0.6510
      9 PA          2.8566   -2.1440   -3.6977 P.3       1 ACP         1.7966
     10 O1A         3.0940   -3.6176   -3.8586 O.2       1 ACP        -0.8436
     11 O2A         1.6428   -1.5611   -4.5945 O.3       1 ACP        -0.8190
     12 O3A         4.1138   -1.2120   -4.1056 O.3       1 ACP        -0.7947
     13 O5'         2.5233   -1.6622   -2.1894 O.3       1 ACP        -0.5846
     14 C5'         2.2816   -0.2918   -1.9206 C.3       1 ACP         0.2005
     15 C4'         2.7248    0.0226   -0.4980 C.3       1 ACP         0.0711
     16 O4'         2.4697    1.4219   -0.2462 O.3       1 ACP        -0.4064
     17 C3'         1.9404   -0.7419    0.5596 C.3       1 ACP         0.0975
     18 O3'         2.7418   -0.8086    1.7389 O.3       1 ACP        -0.5957
     19 C2'         0.7477    0.1630    0.7858 C.3       1 ACP         0.1195
     20 O2'         0.1373   -0.0577    2.0407 O.3       1 ACP        -0.5845
     21 C1'         1.3733    1.5427    0.6747 C.3       1 ACP         0.4064
     22 N9          0.4520    2.5240    0.1767 N.pl3     1 ACP        -0.5630
     23 C8         -0.8602    2.5861    0.3496 C.ar      1 ACP         0.2808
     24 N7         -1.4308    3.6326   -0.2443 N.pl3     1 ACP        -0.5040
     25 C5         -0.4080    4.2856   -0.8394 C.ar      1 ACP        -0.2807
     26 C6         -0.3432    5.4196   -1.5943 C.ar      1 ACP         0.7712
     27 N6         -1.5276    6.1333   -1.8702 N.pl3     1 ACP        -0.9461
     28 N1          0.8395    5.8603   -2.0764 N.ar      1 ACP        -0.7457
     29 C2          1.9319    5.1095   -1.7617 C.ar      1 ACP         0.7201
     30 N3          1.9773    3.9761   -1.0249 N.ar      1 ACP        -0.6849
     31 C4          0.7724    3.6031   -0.5836 C.ar      1 ACP         0.6369
     32 HOG2        5.5864   -1.0406   -2.2431 H         1 ACP         0.4781
     33 HOG3        8.8986    0.8599   -2.5741 H         1 ACP         0.4781
     34 H3B1        5.8638    0.9739   -4.7048 H         1 ACP         0.1236
     35 H3B2        6.9538    0.1399   -5.8080 H         1 ACP         0.1236
     36 HOA2        1.6914   -1.6457   -5.5706 H         1 ACP         0.4716
     37 H5'1        2.8428    0.3150   -2.6387 H         1 ACP         0.0529
     38 H5'2        1.2124   -0.0896   -2.0417 H         1 ACP         0.0529
     39 H4'         3.8049   -0.1388   -0.4009 H         1 ACP         0.1213
     40 H3'         1.6783   -1.7629    0.2715 H         1 ACP         0.0524
     41 HO3'        3.5554   -1.2733    1.4914 H         1 ACP         0.4707
     42 H2'        -0.0011    0.0027    0.0003 H         1 ACP         0.0774
     43 HO2'       -0.1563   -0.9855    2.0596 H         1 ACP         0.4561
     44 H1'         1.7826    1.9024    1.6451 H         1 ACP         0.1559
     45 H8         -1.4217    1.8638    0.9164 H         1 ACP         0.2754
     46 HN61       -2.4023    5.7711   -1.5477 H         1 ACP         0.4584
     47 HN62       -1.4856    6.9379   -2.4627 H         1 ACP         0.4584
     48 H2          2.8789    5.4660   -2.1503 H         1 ACP         0.0892
     49 H49        -2.4129    3.8706   -0.2402 H         1 ACP         0.5039
@<TRIPOS>BOND
     1    1    2 2
     2    1    3 1
     3    1    4 1
     4    1    8 1
     5    3   32 1
     6    4   33 1
     7    5    6 2
     8    5    7 1
     9    5    8 1
    10    5   12 1
    11    8   34 1
    12    8   35 1
    13    9   10 2
    14    9   11 1
    15    9   12 1
    16    9   13 1
    17   11   36 1
    18   13   14 1
    19   14   15 1
    20   14   37 1
    21   14   38 1
    22   15   16 1
    23   15   17 1
    24   15   39 1
    25   16   21 1
    26   17   18 1
    27   17   19 1
    28   17   40 1
    29   18   41 1
    30   19   20 1
    31   19   21 1
    32   19   42 1
    33   20   43 1
    34   21   22 1
    35   21   44 1
    36   22   23 ar
    37   22   31 ar
    38   23   24 ar
    39   23   45 1
    40   24   25 ar
    41   24   49 1
    42   25   26 ar
    43   25   31 ar
    44   26   27 1
    45   26   28 ar
    46   27   46 1
    47   27   47 1
    48   28   29 ar
    49   29   30 ar
    50   29   48 1
    51   30   31 ar
@<TRIPOS>SUBSTRUCTURE
     1 ACP         1 GROUP 0 A     ****
@<TRIPOS>MOLECULE
[[5-(6-amino-7,8-dihydropurin-8-ylium-9-yl)-3,4-dihydroxy-tetrahydrofuran-2-yl]methoxy-hydroxy-phosphoryl]oxy-(phosphonomethyl)phosphinate
   49    51     1     0     0
SMALL
USER_CHARGES

@<TRIPOS>ATOM
      1 PG          4.1727    1.6809   -6.0073 P.3       1 ACP         1.6362
      2 O1G         3.9337    1.8665   -4.5390 O.2       1 ACP        -0.8691
      3 O2G         3.0298    2.2802   -6.9792 O.3       1 ACP        -0.8016
      4 O3G         5.5366    2.3340   -6.5756 O.3       1 ACP        -0.8016
      5 PB          2.9196   -1.2572   -6.2908 P.3       1 ACP         1.4874
      6 O1B         3.3896   -2.5824   -6.8445 O.co2     1 ACP        -0.8240
      7 O2B         1.6496   -0.5902   -6.7659 O.co2     1 ACP        -0.8240
      8 C3B         4.2969   -0.0454   -6.5278 C.3       1 ACP        -0.6510
      9 PA          2.1469   -2.2812   -3.6362 P.3       1 ACP         1.7966
     10 O1A         2.4486   -3.7424   -3.8027 O.2       1 ACP        -0.8436
     11 O2A         0.5931   -1.8902   -3.8605 O.3       1 ACP        -0.8190
     12 O3A         2.9361   -1.3107   -4.6613 O.3       1 ACP        -0.7947
     13 O5'         2.5233   -1.6622   -2.1894 O.3       1 ACP        -0.5846
     14 C5'         2.2816   -0.2918   -1.9206 C.3       1 ACP         0.2005
     15 C4'         2.7248    0.0226   -0.4980 C.3       1 ACP         0.0711
     16 O4'         2.4697    1.4219   -0.2462 O.3       1 ACP        -0.4064
     17 C3'         1.9404   -0.7419    0.5596 C.3       1 ACP         0.0975
     18 O3'         2.7418   -0.8086    1.7389 O.3       1 ACP        -0.5957
     19 C2'         0.7477    0.1630    0.7858 C.3       1 ACP         0.1195
     20 O2'         0.1373   -0.0577    2.0407 O.3       1 ACP        -0.5845
     21 C1'         1.3733    1.5427    0.6747 C.3       1 ACP         0.4064
     22 N9          0.4520    2.5240    0.1767 N.pl3     1 ACP        -0.5630
     23 C8         -0.5899    2.3466   -0.6224 C.ar      1 ACP         0.2808
     24 N7         -1.2514    3.4689   -0.8989 N.pl3     1 ACP        -0.5040
     25 C5         -0.5826    4.4323   -0.2272 C.ar      1 ACP        -0.2807
     26 C6         -0.7636    5.7789   -0.1086 C.ar      1 ACP         0.7712
     27 N6         -1.8382    6.3927   -0.7843 N.pl3     1 ACP        -0.9461
     28 N1          0.0741    6.5233    0.6461 N.ar      1 ACP        -0.7457
     29 C2          1.0845    5.8486    1.2626 C.ar      1 ACP         0.7201
     30 N3          1.3516    4.5236    1.2116 N.ar      1 ACP        -0.6849
     31 C4          0.4827    3.8546    0.4481 C.ar      1 ACP         0.6369
     32 HOG2        2.1125    1.9419   -6.8994 H         1 ACP         0.4781
     33 HOG3        5.6727    3.3015   -6.4884 H         1 ACP         0.4781
     34 H3B1        4.5135   -0.0420   -7.6021 H         1 ACP         0.1236
     35 H3B2        5.1703   -0.4793   -6.0278 H         1 ACP         0.1236
     36 HOA2        0.1776   -2.0777   -4.7290 H         1 ACP         0.4716
     37 H5'1        2.8428    0.3150   -2.6387 H         1 ACP         0.0529
     38 H5'2        1.2124   -0.0896   -2.0417 H         1 ACP         0.0529
     39 H4'         3.8049   -0.1388   -0.4009 H         1 ACP         0.1213
     40 H3'         1.6783   -1.7629    0.2715 H         1 ACP         0.0524
     41 HO3'        2.2232   -1.2979    2.3953 H         1 ACP         0.4707
     42 H2'        -0.0011    0.0027    0.0003 H         1 ACP         0.0774
     43 HO2'       -0.6141    0.5574    2.1082 H         1 ACP         0.4561
     44 H1'         1.7826    1.9024    1.6451 H         1 ACP         0.1559
     45 H8         -0.8833    1.3888   -1.0158 H         1 ACP         0.2754
     46 HN61       -2.4225    5.8385   -1.3773 H         1 ACP         0.4584
     47 HN62       -1.9421    7.3862   -0.7348 H         1 ACP         0.4584
     48 H2          1.7546    6.4491    1.8670 H         1 ACP         0.0892
     49 H49        -2.0705    3.5612   -1.4834 H         1 ACP         0.5039
@<TRIPOS>BOND
     1    1    2 2
     2    1    3 1
     3    1    4 1
     4    1    8 1
     5    3   32 1
     6    4   33 1
     7    5    6 2
     8    5    7 1
     9    5    8 1
    10    5   12 1
    11    8   34 1
    12    8   35 1
    13    9   10 2
    14    9   11 1
    15    9   12 1
    16    9   13 1
    17   11   36 1
    18   13   14 1
    19   14   15 1
    20   14   37 1
    21   14   38 1
    22   15   16 1
    23   15   17 1
    24   15   39 1
    25   16   21 1
    26   17   18 1
    27   17   19 1
    28   17   40 1
    29   18   41 1
    30   19   20 1
    31   19   21 1
    32   19   42 1
    33   20   43 1
    34   21   22 1
    35   21   44 1
    36   22   23 ar
    37   22   31 ar
    38   23   24 ar
    39   23   45 1
    40   24   25 ar
    41   24   49 1
    42   25   26 ar
    43   25   31 ar
    44   26   27 1
    45   26   28 ar
    46   27   46 1
    47   27   47 1
    48   28   29 ar
    49   29   30 ar
    50   29   48 1
    51   30   31 ar
@<TRIPOS>SUBSTRUCTURE
     1 ACP         1 GROUP 0 A     ****
@<TRIPOS>MOLECULE
[[5-(6-amino-7,8-dihydropurin-8-ylium-9-yl)-3,4-dihydroxy-tetrahydrofuran-2-yl]methoxy-hydroxy-phosphoryl]oxy-(phosphonomethyl)phosphinate
   49    51     1     0     0
SMALL
USER_CHARGES

@<TRIPOS>ATOM
      1 PG          7.3458   -0.4674   -3.5410 P.3       1 ACP         1.6362
      2 O1G         6.6068   -0.6335   -2.2472 O.2       1 ACP        -0.8691
      3 O2G         8.4953    0.6678   -3.5446 O.3       1 ACP        -0.8016
      4 O3G         8.1108   -1.7856   -4.0765 O.3       1 ACP        -0.8016
      5 PB          4.8982   -1.0581   -5.5267 P.3       1 ACP         1.4874
      6 O1B         5.4808   -2.3930   -5.9293 O.co2     1 ACP        -0.8240
      7 O2B         4.0737   -0.2196   -6.4757 O.co2     1 ACP        -0.8240
      8 C3B         6.3000   -0.0035   -4.9402 C.3       1 ACP        -0.6510
      9 PA          2.8566   -2.1440   -3.6977 P.3       1 ACP         1.7966
     10 O1A         3.0940   -3.6176   -3.8586 O.2       1 ACP        -0.8436
     11 O2A         1.6428   -1.5611   -4.5945 O.3       1 ACP        -0.8190
     12 O3A         4.1138   -1.2120   -4.1056 O.3       1 ACP        -0.7947
     13 O5'         2.5233   -1.6622   -2.1894 O.3       1 ACP        -0.5846
     14 C5'         2.2816   -0.2918   -1.9206 C.3       1 ACP         0.2005
     15 C4'         2.7248    0.0226   -0.4980 C.3       1 ACP         0.0711
     16 O4'         2.4697    1.4219   -0.2462 O.3       1 ACP        -0.4064
     17 C3'         1.9404   -0.7419    0.5596 C.3       1 ACP         0.0975
     18 O3'         2.7418   -0.8086    1.7389 O.3       1 ACP        -0.5957
     19 C2'         0.7477    0.1630    0.7858 C.3       1 ACP         0.1195
     20 O2'         0.1373   -0.0577    2.0407 O.3       1 ACP        -0.5845
     21 C1'         1.3733    1.5427    0.6747 C.3       1 ACP         0.4064
     22 N9          0.4520    2.5240    0.1767 N.pl3     1 ACP        -0.5630
     23 C8         -0.3477    3.3274    0.8626 C.ar      1 ACP         0.2808
     24 N7         -1.0836    4.1323    0.0983 N.pl3     1 ACP        -0.5040
     25 C5         -0.7273    3.8194   -1.1674 C.ar      1 ACP        -0.2807
     26 C6         -1.1208    4.2877   -2.3863 C.ar      1 ACP         0.7712
     27 N6         -2.0932    5.3066   -2.4528 N.pl3     1 ACP        -0.9461
     28 N1         -0.5892    3.7853   -3.5223 N.ar      1 ACP        -0.7457
     29 C2          0.3427    2.8040   -3.3648 C.ar      1 ACP         0.7201
     30 N3          0.8012    2.2709   -2.2093 N.ar      1 ACP        -0.6849
     31 C4          0.2307    2.8167   -1.1312 C.ar      1 ACP         0.6369
     32 HOG2        9.2439    0.5883   -2.9157 H         1 ACP         0.4781
     33 HOG3        8.6112   -1.7355   -4.9188 H         1 ACP         0.4781
     34 H3B1        5.8638    0.9739   -4.7048 H         1 ACP         0.1236
     35 H3B2        6.9538    0.1399   -5.8080 H         1 ACP         0.1236
     36 HOA2        0.7398   -1.9201   -4.4610 H         1 ACP         0.4716
     37 H5'1        2.8428    0.3150   -2.6387 H         1 ACP         0.0529
     38 H5'2        1.2124   -0.0896   -2.0417 H         1 ACP         0.0529
     39 H4'         3.8049   -0.1388   -0.4009 H         1 ACP         0.1213
     40 H3'         1.6783   -1.7629    0.2715 H         1 ACP         0.0524
     41 HO3'        2.2232   -1.2979    2.3953 H         1 ACP         0.4707
     42 H2'        -0.0011    0.0027    0.0003 H         1 ACP         0.0774
     43 HO2'       -0.6141    0.5574    2.1082 H         1 ACP         0.4561
     44 H1'         1.7826    1.9024    1.6451 H         1 ACP         0.1559
     45 H8         -0.4040    3.3373    1.9373 H         1 ACP         0.2754
     46 HN61       -2.5133    5.6366   -1.6073 H         1 ACP         0.4584
     47 HN62       -2.4153    5.6161   -3.3477 H         1 ACP         0.4584
     48 H2          0.7668    2.4032   -4.2782 H         1 ACP         0.0892
     49 H49        -1.7549    4.8194    0.4122 H         1 ACP         0.5039
@<TRIPOS>BOND
     1    1    2 2
     2    1    3 1
     3    1    4 1
     4    1    8 1
     5    3   32 1
     6    4   33 1
     7    5    6 2
     8    5    7 1
     9    5    8 1
    10    5   12 1
    11    8   34 1
    12    8   35 1
    13    9   10 2
    14    9   11 1
    15    9   12 1
    16    9   13 1
    17   11   36 1
    18   13   14 1
    19   14   15 1
    20   14   37 1
    21   14   38 1
    22   15   16 1
    23   15   17 1
    24   15   39 1
    25   16   21 1
    26   17   18 1
    27   17   19 1
    28   17   40 1
    29   18   41 1
    30   19   20 1
    31   19   21 1
    32   19   42 1
    33   20   43 1
    34   21   22 1
    35   21   44 1
    36   22   23 ar
    37   22   31 ar
    38   23   24 ar
    39   23   45 1
    40   24   25 ar
    41   24   49 1
    42   25   26 ar
    43   25   31 ar
    44   26   27 1
    45   26   28 ar
    46   27   46 1
    47   27   47 1
    48   28   29 ar
    49   29   30 ar
    50   29   48 1
    51   30   31 ar
@<TRIPOS>SUBSTRUCTURE
     1 ACP         1 GROUP 0 A     ****
@<TRIPOS>MOLECULE
[[5-(6-amino-7,8-dihydropurin-8-ylium-9-yl)-3,4-dihydroxy-tetrahydrofuran-2-yl]methoxy-hydroxy-phosphoryl]oxy-(phosphonomethyl)phosphinate
   49    51     1     0     0
SMALL
USER_CHARGES

@<TRIPOS>ATOM
      1 PG          3.7555    0.2303   -7.7018 P.3       1 ACP         1.6362
      2 O1G         3.7674    1.5144   -8.4753 O.2       1 ACP        -0.8691
      3 O2G         2.2971   -0.4196   -7.4552 O.3       1 ACP        -0.8016
      4 O3G         4.6060   -0.9791   -8.3528 O.3       1 ACP        -0.8016
      5 PB          4.5355   -1.0840   -4.8827 P.3       1 ACP         1.4874
      6 O1B         5.1584   -0.5907   -3.5973 O.co2     1 ACP        -0.8240
      7 O2B         5.1110   -2.2419   -5.6645 O.co2     1 ACP        -0.8240
      8 C3B         4.4392    0.3607   -6.0338 C.3       1 ACP        -0.6510
      9 PA          2.1469   -2.2812   -3.6362 P.3       1 ACP         1.7966
     10 O1A         2.4486   -3.7424   -3.8027 O.2       1 ACP        -0.8436
     11 O2A         0.5931   -1.8902   -3.8605 O.3       1 ACP        -0.8190
     12 O3A         2.9361   -1.3107   -4.6613 O.3       1 ACP        -0.7947
     13 O5'         2.5233   -1.6622   -2.1894 O.3       1 ACP        -0.5846
     14 C5'         2.2816   -0.2918   -1.9206 C.3       1 ACP         0.2005
     15 C4'         2.7248    0.0226   -0.4980 C.3       1 ACP         0.0711
     16 O4'         2.4697    1.4219   -0.2462 O.3       1 ACP        -0.4064
     17 C3'         1.9404   -0.7419    0.5596 C.3       1 ACP         0.0975
     18 O3'         2.7418   -0.8086    1.7389 O.3       1 ACP        -0.5957
     19 C2'         0.7477    0.1630    0.7858 C.3       1 ACP         0.1195
     20 O2'         0.1373   -0.0577    2.0407 O.3       1 ACP        -0.5845
     21 C1'         1.3733    1.5427    0.6747 C.3       1 ACP         0.4064
     22 N9          0.4520    2.5240    0.1767 N.pl3     1 ACP        -0.5630
     23 C8         -0.8252    2.3702   -0.1405 C.ar      1 ACP         0.2808
     24 N7         -1.4086    3.4861   -0.5739 N.pl3     1 ACP        -0.5040
     25 C5         -0.4324    4.4197   -0.5299 C.ar      1 ACP        -0.2807
     26 C6         -0.4006    5.7465   -0.8438 C.ar      1 ACP         0.7712
     27 N6         -1.5714    6.3708   -1.3211 N.pl3     1 ACP        -0.9461
     28 N1          0.7371    6.4615   -0.7020 N.ar      1 ACP        -0.7457
     29 C2          1.8196    5.7785   -0.2355 C.ar      1 ACP         0.7201
     30 N3          1.8948    4.4713    0.1036 N.ar      1 ACP        -0.6849
     31 C4          0.7337    3.8311   -0.0629 C.ar      1 ACP         0.6369
     32 HOG2        2.2298   -1.2605   -6.9546 H         1 ACP         0.4781
     33 HOG3        4.3656   -1.3015   -9.2475 H         1 ACP         0.4781
     34 H3B1        5.4645    0.7338   -6.1354 H         1 ACP         0.1236
     35 H3B2        3.8702    1.1325   -5.5030 H         1 ACP         0.1236
     36 HOA2       -0.0865   -2.2971   -3.2819 H         1 ACP         0.4716
     37 H5'1        2.8428    0.3150   -2.6387 H         1 ACP         0.0529
     38 H5'2        1.2124   -0.0896   -2.0417 H         1 ACP         0.0529
     39 H4'         3.8049   -0.1388   -0.4009 H         1 ACP         0.1213
     40 H3'         1.6783   -1.7629    0.2715 H         1 ACP         0.0524
     41 HO3'        2.2232   -1.2979    2.3953 H         1 ACP         0.4707
     42 H2'        -0.0011    0.0027    0.0003 H         1 ACP         0.0774
     43 HO2'       -0.6141    0.5574    2.1082 H         1 ACP         0.4561
     44 H1'         1.7826    1.9024    1.6451 H         1 ACP         0.1559
     45 H8         -1.3516    1.4351   -0.0582 H         1 ACP         0.2754
     46 HN61       -2.3936    5.8204   -1.4664 H         1 ACP         0.4584
     47 HN62       -1.5348    7.3319   -1.5955 H         1 ACP         0.4584
     48 H2          2.7305    6.3553   -0.1232 H         1 ACP         0.0892
     49 H49        -2.3700    3.5931   -0.8665 H         1 ACP         0.5039
@<TRIPOS>BOND
     1    1    2 2
     2    1    3 1
     3    1    4 1
     4    1    8 1
     5    3   32 1
     6    4   33 1
     7    5    6 2
     8    5    7 1
     9    5    8 1
    10    5   12 1
    11    8   34 1
    12    8   35 1
    13    9   10 2
    14    9   11 1
    15    9   12 1
    16    9   13 1
    17   11   36 1
    18   13   14 1
    19   14   15 1
    20   14   37 1
    21   14   38 1
    22   15   16 1
    23   15   17 1
    24   15   39 1
    25   16   21 1
    26   17   18 1
    27   17   19 1
    28   17   40 1
    29   18   41 1
    30   19   20 1
    31   19   21 1
    32   19   42 1
    33   20   43 1
    34   21   22 1
    35   21   44 1
    36   22   23 ar
    37   22   31 ar
    38   23   24 ar
    39   23   45 1
    40   24   25 ar
    41   24   49 1
    42   25   26 ar
    43   25   31 ar
    44   26   27 1
    45   26   28 ar
    46   27   46 1
    47   27   47 1
    48   28   29 ar
    49   29   30 ar
    50   29   48 1
    51   30   31 ar
@<TRIPOS>SUBSTRUCTURE
     1 ACP         1 GROUP 0 A     ****
@<TRIPOS>MOLECULE
[[5-(6-amino-7,8-dihydropurin-8-ylium-9-yl)-3,4-dihydroxy-tetrahydrofuran-2-yl]methoxy-hydroxy-phosphoryl]oxy-(phosphonomethyl)phosphinate
   49    51     1     0     0
SMALL
USER_CHARGES

@<TRIPOS>ATOM
      1 PG         -1.0082   -4.7262    8.1436 P.3       1 ACP         1.6362
      2 O1G        -1.8712   -4.0477    9.1645 O.2       1 ACP        -0.8691
      3 O2G         0.3087   -5.4607    8.7236 O.3       1 ACP        -0.8016
      4 O3G        -1.7360   -5.8787    7.2764 O.3       1 ACP        -0.8016
      5 PB         -1.4275   -2.6340    5.7500 P.3       1 ACP         1.4874
      6 O1B        -0.5201   -1.8381    4.8406 O.co2     1 ACP        -0.8240
      7 O2B        -2.4864   -1.9786    6.6058 O.co2     1 ACP        -0.8240
      8 C3B        -0.3432   -3.6198    6.8787 C.3       1 ACP        -0.6510
      9 PA         -3.0212   -3.8715    3.6003 P.3       1 ACP         1.7966
     10 O1A        -4.3226   -3.1408    3.7625 O.2       1 ACP        -0.8436
     11 O2A        -3.1769   -5.4412    3.2407 O.3       1 ACP        -0.8190
     12 O3A        -2.0826   -3.8733    4.9174 O.3       1 ACP        -0.7947
     13 O5'        -2.0397   -3.2817    2.4572 O.3       1 ACP        -0.5846
     14 C5'        -0.7840   -3.8935    2.2172 C.3       1 ACP         0.2005
     15 C4'        -0.0724   -3.1466    1.1027 C.3       1 ACP         0.0711
     16 O4'        -0.8674   -3.1929   -0.0945 O.3       1 ACP        -0.4064
     17 C3'         0.1338   -1.6715    1.4027 C.3       1 ACP         0.0975
     18 O3'         1.2893   -1.4445    2.1808 O.3       1 ACP        -0.5957
     19 C2'         0.2158   -1.0724    0.0128 C.3       1 ACP         0.1195
     20 O2'         1.5141   -1.2448   -0.5513 O.3       1 ACP        -0.5845
     21 C1'        -0.7897   -1.9176   -0.7583 C.3       1 ACP         0.4064
     22 N9         -2.1040   -1.3333   -0.7704 N.pl3     1 ACP        -0.5630
     23 C8         -2.8739   -1.0133    0.2593 C.ar      1 ACP         0.2808
     24 N7         -4.0439   -0.4818   -0.0902 N.pl3     1 ACP        -0.5040
     25 C5         -4.0184   -0.4615   -1.4414 C.ar      1 ACP        -0.2807
     26 C6         -4.9120   -0.0399   -2.3814 C.ar      1 ACP         0.7712
     27 N6         -6.1459    0.5018   -1.9665 N.pl3     1 ACP        -0.9461
     28 N1         -4.6250   -0.1374   -3.6981 N.ar      1 ACP        -0.7457
     29 C2         -3.4114   -0.6729   -4.0088 C.ar      1 ACP         0.7201
     30 N3         -2.4579   -1.1190   -3.1595 N.ar      1 ACP        -0.6849
     31 C4         -2.8124   -0.9904   -1.8776 C.ar      1 ACP         0.6369
     32 HOG2        0.2008   -6.1818    9.3797 H         1 ACP         0.4781
     33 HOG3       -1.2196   -6.3570    6.5931 H         1 ACP         0.4781
     34 H3B1        0.2969   -2.8933    7.3919 H         1 ACP         0.1236
     35 H3B2        0.3079   -4.2149    6.2284 H         1 ACP         0.1236
     36 HOA2       -3.6470   -5.6948    2.4181 H         1 ACP         0.4716
     37 H5'1       -0.1919   -3.8613    3.1376 H         1 ACP         0.0529
     38 H5'2       -0.9466   -4.9385    1.9341 H         1 ACP         0.0529
     39 H4'         0.8886   -3.6448    0.8780 H         1 ACP         0.1213
     40 H3'        -0.7374   -1.2358    1.9870 H         1 ACP         0.0524
     41 HO3'        1.3408   -0.4870    2.3219 H         1 ACP         0.4707
     42 H2'        -0.0384   -0.0310    0.0096 H         1 ACP         0.0774
     43 HO2'        2.1463   -0.7958    0.0370 H         1 ACP         0.4561
     44 H1'        -0.4769   -2.1002   -1.8093 H         1 ACP         0.1559
     45 H8         -2.5891   -1.1636    1.2862 H         1 ACP         0.2754
     46 HN61       -6.3657    0.5248   -0.9911 H         1 ACP         0.4584
     47 HN62       -6.8193    0.7669   -2.6568 H         1 ACP         0.4584
     48 H2         -3.1848   -0.7497   -5.0660 H         1 ACP         0.0892
     49 H49        -4.7768   -0.1684    0.5309 H         1 ACP         0.5039
@<TRIPOS>BOND
     1    1    2 2
     2    1    3 1
     3    1    4 1
     4    1    8 1
     5    3   32 1
     6    4   33 1
     7    5    6 2
     8    5    7 1
     9    5    8 1
    10    5   12 1
    11    8   34 1
    12    8   35 1
    13    9   10 2
    14    9   11 1
    15    9   12 1
    16    9   13 1
    17   11   36 1
    18   13   14 1
    19   14   15 1
    20   14   37 1
    21   14   38 1
    22   15   16 1
    23   15   17 1
    24   15   39 1
    25   16   21 1
    26   17   18 1
    27   17   19 1
    28   17   40 1
    29   18   41 1
    30   19   20 1
    31   19   21 1
    32   19   42 1
    33   20   43 1
    34   21   22 1
    35   21   44 1
    36   22   23 ar
    37   22   31 ar
    38   23   24 ar
    39   23   45 1
    40   24   25 ar
    41   24   49 1
    42   25   26 ar
    43   25   31 ar
    44   26   27 1
    45   26   28 ar
    46   27   46 1
    47   27   47 1
    48   28   29 ar
    49   29   30 ar
    50   29   48 1
    51   30   31 ar
@<TRIPOS>SUBSTRUCTURE
     1 ACP         1 GROUP 0 A     ****
@<TRIPOS>MOLECULE
[[5-(6-amino-7,8-dihydropurin-8-ylium-9-yl)-3,4-dihydroxy-tetrahydrofuran-2-yl]methoxy-hydroxy-phosphoryl]oxy-(phosphonomethyl)phosphinate
   49    51     1     0     0
SMALL
USER_CHARGES

@<TRIPOS>ATOM
      1 PG         -0.4311   -2.0100    7.1800 P.3       1 ACP         1.6362
      2 O1G        -0.2027   -1.4857    5.7943 O.2       1 ACP        -0.8691
      3 O2G         0.8312   -1.8994    8.1823 O.3       1 ACP        -0.8016
      4 O3G        -1.6308   -1.3037    7.9995 O.3       1 ACP        -0.8016
      5 PB         -2.3649   -4.4511    6.4156 P.3       1 ACP         1.4874
      6 O1B        -3.5659   -3.7517    7.0088 O.co2     1 ACP        -0.8240
      7 O2B        -2.2273   -5.9559    6.4158 O.co2     1 ACP        -0.8240
      8 C3B        -0.8638   -3.7634    7.2496 C.3       1 ACP        -0.6510
      9 PA         -3.0212   -3.8715    3.6003 P.3       1 ACP         1.7966
     10 O1A        -4.3226   -3.1408    3.7625 O.2       1 ACP        -0.8436
     11 O2A        -3.1769   -5.4412    3.2407 O.3       1 ACP        -0.8190
     12 O3A        -2.0826   -3.8733    4.9174 O.3       1 ACP        -0.7947
     13 O5'        -2.0397   -3.2817    2.4572 O.3       1 ACP        -0.5846
     14 C5'        -0.7840   -3.8935    2.2172 C.3       1 ACP         0.2005
     15 C4'        -0.0724   -3.1466    1.1027 C.3       1 ACP         0.0711
     16 O4'        -0.8674   -3.1929   -0.0945 O.3       1 ACP        -0.4064
     17 C3'         0.1338   -1.6715    1.4027 C.3       1 ACP         0.0975
     18 O3'         1.2893   -1.4445    2.1808 O.3       1 ACP        -0.5957
     19 C2'         0.2158   -1.0724    0.0128 C.3       1 ACP         0.1195
     20 O2'         1.5141   -1.2448   -0.5513 O.3       1 ACP        -0.5845
     21 C1'        -0.7897   -1.9176   -0.7583 C.3       1 ACP         0.4064
     22 N9         -2.1040   -1.3333   -0.7704 N.pl3     1 ACP        -0.5630
     23 C8         -2.6611   -0.5376    0.1306 C.ar      1 ACP         0.2808
     24 N7         -3.9008   -0.1619   -0.1787 N.pl3     1 ACP        -0.5040
     25 C5         -4.1527   -0.7619   -1.3633 C.ar      1 ACP        -0.2807
     26 C6         -5.2376   -0.7682   -2.1896 C.ar      1 ACP         0.7712
     27 N6         -6.3842   -0.0312   -1.8286 N.pl3     1 ACP        -0.9461
     28 N1         -5.2214   -1.4713   -3.3433 N.ar      1 ACP        -0.7457
     29 C2         -4.0737   -2.1541   -3.6127 C.ar      1 ACP         0.7201
     30 N3         -2.9476   -2.2143   -2.8660 N.ar      1 ACP        -0.6849
     31 C4         -3.0383   -1.4958   -1.7429 C.ar      1 ACP         0.6369
     32 HOG2        1.2042   -1.0143    8.3812 H         1 ACP         0.4781
     33 HOG3       -1.8258   -1.6064    8.9120 H         1 ACP         0.4781
     34 H3B1       -0.0119   -4.3207    6.8439 H         1 ACP         0.1236
     35 H3B2       -0.9519   -4.0403    8.3063 H         1 ACP         0.1236
     36 HOA2       -3.6470   -5.6948    2.4181 H         1 ACP         0.4716
     37 H5'1       -0.1919   -3.8613    3.1376 H         1 ACP         0.0529
     38 H5'2       -0.9466   -4.9385    1.9341 H         1 ACP         0.0529
     39 H4'         0.8886   -3.6448    0.8780 H         1 ACP         0.1213
     40 H3'        -0.7374   -1.2358    1.9870 H         1 ACP         0.0524
     41 HO3'        1.3408   -0.4870    2.3219 H         1 ACP         0.4707
     42 H2'        -0.0384   -0.0310    0.0096 H         1 ACP         0.0774
     43 HO2'        2.1463   -0.7958    0.0370 H         1 ACP         0.4561
     44 H1'        -0.4769   -2.1002   -1.8093 H         1 ACP         0.1559
     45 H8         -2.1661   -0.2178    1.0311 H         1 ACP         0.2754
     46 HN61       -6.4010    0.4463   -0.9500 H         1 ACP         0.4584
     47 HN62       -7.1957   -0.0744   -2.4116 H         1 ACP         0.4584
     48 H2         -4.0645   -2.7171   -4.5389 H         1 ACP         0.0892
     49 H49        -4.5050    0.4395    0.3640 H         1 ACP         0.5039
@<TRIPOS>BOND
     1    1    2 2
     2    1    3 1
     3    1    4 1
     4    1    8 1
     5    3   32 1
     6    4   33 1
     7    5    6 2
     8    5    7 1
     9    5    8 1
    10    5   12 1
    11    8   34 1
    12    8   35 1
    13    9   10 2
    14    9   11 1
    15    9   12 1
    16    9   13 1
    17   11   36 1
    18   13   14 1
    19   14   15 1
    20   14   37 1
    21   14   38 1
    22   15   16 1
    23   15   17 1
    24   15   39 1
    25   16   21 1
    26   17   18 1
    27   17   19 1
    28   17   40 1
    29   18   41 1
    30   19   20 1
    31   19   21 1
    32   19   42 1
    33   20   43 1
    34   21   22 1
    35   21   44 1
    36   22   23 ar
    37   22   31 ar
    38   23   24 ar
    39   23   45 1
    40   24   25 ar
    41   24   49 1
    42   25   26 ar
    43   25   31 ar
    44   26   27 1
    45   26   28 ar
    46   27   46 1
    47   27   47 1
    48   28   29 ar
    49   29   30 ar
    50   29   48 1
    51   30   31 ar
@<TRIPOS>SUBSTRUCTURE
     1 ACP         1 GROUP 0 A     ****
@<TRIPOS>MOLECULE
[[5-(6-amino-7,8-dihydropurin-8-ylium-9-yl)-3,4-dihydroxy-tetrahydrofuran-2-yl]methoxy-hydroxy-phosphoryl]oxy-(phosphonomethyl)phosphinate
   49    51     1     0     0
SMALL
USER_CHARGES

@<TRIPOS>ATOM
      1 PG         -0.4311   -2.0100    7.1800 P.3       1 ACP         1.6362
      2 O1G        -1.4705   -1.0950    7.7542 O.2       1 ACP        -0.8691
      3 O2G        -0.0831   -1.7754    5.6199 O.3       1 ACP        -0.8016
      4 O3G         1.0124   -1.9600    7.9037 O.3       1 ACP        -0.8016
      5 PB         -2.3649   -4.4511    6.4156 P.3       1 ACP         1.4874
      6 O1B        -3.5659   -3.7517    7.0088 O.co2     1 ACP        -0.8240
      7 O2B        -2.2273   -5.9559    6.4158 O.co2     1 ACP        -0.8240
      8 C3B        -0.8638   -3.7634    7.2496 C.3       1 ACP        -0.6510
      9 PA         -3.0212   -3.8715    3.6003 P.3       1 ACP         1.7966
     10 O1A        -4.3226   -3.1408    3.7625 O.2       1 ACP        -0.8436
     11 O2A        -3.1769   -5.4412    3.2407 O.3       1 ACP        -0.8190
     12 O3A        -2.0826   -3.8733    4.9174 O.3       1 ACP        -0.7947
     13 O5'        -2.0397   -3.2817    2.4572 O.3       1 ACP        -0.5846
     14 C5'        -0.7840   -3.8935    2.2172 C.3       1 ACP         0.2005
     15 C4'        -0.0724   -3.1466    1.1027 C.3       1 ACP         0.0711
     16 O4'        -0.8674   -3.1929   -0.0945 O.3       1 ACP        -0.4064
     17 C3'         0.1338   -1.6715    1.4027 C.3       1 ACP         0.0975
     18 O3'         1.2893   -1.4445    2.1808 O.3       1 ACP        -0.5957
     19 C2'         0.2158   -1.0724    0.0128 C.3       1 ACP         0.1195
     20 O2'         1.5141   -1.2448   -0.5513 O.3       1 ACP        -0.5845
     21 C1'        -0.7897   -1.9176   -0.7583 C.3       1 ACP         0.4064
     22 N9         -2.1040   -1.3333   -0.7704 N.pl3     1 ACP        -0.5630
     23 C8         -2.8739   -1.0133    0.2593 C.ar      1 ACP         0.2808
     24 N7         -4.0439   -0.4818   -0.0902 N.pl3     1 ACP        -0.5040
     25 C5         -4.0184   -0.4615   -1.4414 C.ar      1 ACP        -0.2807
     26 C6         -4.9120   -0.0399   -2.3814 C.ar      1 ACP         0.7712
     27 N6         -6.1459    0.5018   -1.9665 N.pl3     1 ACP        -0.9461
     28 N1         -4.6250   -0.1374   -3.6981 N.ar      1 ACP        -0.7457
     29 C2         -3.4114   -0.6729   -4.0088 C.ar      1 ACP         0.7201
     30 N3         -2.4579   -1.1190   -3.1595 N.ar      1 ACP        -0.6849
     31 C4         -2.8124   -0.9904   -1.8776 C.ar      1 ACP         0.6369
     32 HOG2       -0.7973   -1.8698    4.9541 H         1 ACP         0.4781
     33 HOG3        1.5051   -1.1119    7.9234 H         1 ACP         0.4781
     34 H3B1       -0.0119   -4.3207    6.8439 H         1 ACP         0.1236
     35 H3B2       -0.9519   -4.0403    8.3063 H         1 ACP         0.1236
     36 HOA2       -3.6526   -6.0264    3.8679 H         1 ACP         0.4716
     37 H5'1       -0.1919   -3.8613    3.1376 H         1 ACP         0.0529
     38 H5'2       -0.9466   -4.9385    1.9341 H         1 ACP         0.0529
     39 H4'         0.8886   -3.6448    0.8780 H         1 ACP         0.1213
     40 H3'        -0.7374   -1.2358    1.9870 H         1 ACP         0.0524
     41 HO3'        1.3408   -0.4870    2.3219 H         1 ACP         0.4707
     42 H2'        -0.0384   -0.0310    0.0096 H         1 ACP         0.0774
     43 HO2'        2.1463   -0.7958    0.0370 H         1 ACP         0.4561
     44 H1'        -0.4769   -2.1002   -1.8093 H         1 ACP         0.1559
     45 H8         -2.5891   -1.1636    1.2862 H         1 ACP         0.2754
     46 HN61       -6.3657    0.5248   -0.9911 H         1 ACP         0.4584
     47 HN62       -6.8193    0.7669   -2.6568 H         1 ACP         0.4584
     48 H2         -3.1848   -0.7497   -5.0660 H         1 ACP         0.0892
     49 H49        -4.7768   -0.1684    0.5309 H         1 ACP         0.5039
@<TRIPOS>BOND
     1    1    2 2
     2    1    3 1
     3    1    4 1
     4    1    8 1
     5    3   32 1
     6    4   33 1
     7    5    6 2
     8    5    7 1
     9    5    8 1
    10    5   12 1
    11    8   34 1
    12    8   35 1
    13    9   10 2
    14    9   11 1
    15    9   12 1
    16    9   13 1
    17   11   36 1
    18   13   14 1
    19   14   15 1
    20   14   37 1
    21   14   38 1
    22   15   16 1
    23   15   17 1
    24   15   39 1
    25   16   21 1
    26   17   18 1
    27   17   19 1
    28   17   40 1
    29   18   41 1
    30   19   20 1
    31   19   21 1
    32   19   42 1
    33   20   43 1
    34   21   22 1
    35   21   44 1
    36   22   23 ar
    37   22   31 ar
    38   23   24 ar
    39   23   45 1
    40   24   25 ar
    41   24   49 1
    42   25   26 ar
    43   25   31 ar
    44   26   27 1
    45   26   28 ar
    46   27   46 1
    47   27   47 1
    48   28   29 ar
    49   29   30 ar
    50   29   48 1
    51   30   31 ar
@<TRIPOS>SUBSTRUCTURE
     1 ACP         1 GROUP 0 A     ****
@<TRIPOS>MOLECULE
[[5-(6-amino-7,8-dihydropurin-8-ylium-9-yl)-3,4-dihydroxy-tetrahydrofuran-2-yl]methoxy-hydroxy-phosphoryl]oxy-(phosphonomethyl)phosphinate
   49    51     1     0     0
SMALL
USER_CHARGES

@<TRIPOS>ATOM
      1 PG          5.3878    1.2430   -5.9577 P.3       1 ACP         1.6362
      2 O1G         5.5388    1.0384   -4.4803 O.2       1 ACP        -0.8691
      3 O2G         5.7688    2.7170   -6.4982 O.3       1 ACP        -0.8016
      4 O3G         6.2674    0.2574   -6.8876 O.3       1 ACP        -0.8016
      5 PB          2.8090   -0.6112   -6.3991 P.3       1 ACP         1.4874
      6 O1B         3.6235   -1.6593   -7.1214 O.co2     1 ACP        -0.8240
      7 O2B         1.3571   -0.3513   -6.7276 O.co2     1 ACP        -0.8240
      8 C3B         3.7069    0.9965   -6.5744 C.3       1 ACP        -0.6510
      9 PA          2.6334   -2.0591   -3.8369 P.3       1 ACP         1.7966
     10 O1A         3.3655   -3.3238   -4.1808 O.2       1 ACP        -0.8436
     11 O2A         1.0224   -2.1730   -3.9317 O.3       1 ACP        -0.8190
     12 O3A         2.9834   -0.7995   -4.7890 O.3       1 ACP        -0.7947
     13 O5'         2.9195   -1.4814   -2.3528 O.3       1 ACP        -0.5846
     14 C5'         2.2816   -0.2918   -1.9206 C.3       1 ACP         0.2005
     15 C4'         2.7248    0.0226   -0.4980 C.3       1 ACP         0.0711
     16 O4'         2.4697    1.4219   -0.2462 O.3       1 ACP        -0.4064
     17 C3'         1.9404   -0.7419    0.5596 C.3       1 ACP         0.0975
     18 O3'         2.7418   -0.8086    1.7389 O.3       1 ACP        -0.5957
     19 C2'         0.7477    0.1630    0.7858 C.3       1 ACP         0.1195
     20 O2'         0.1373   -0.0577    2.0407 O.3       1 ACP        -0.5845
     21 C1'         1.3733    1.5427    0.6747 C.3       1 ACP         0.4064
     22 N9          0.4520    2.5240    0.1767 N.pl3     1 ACP        -0.5630
     23 C8          0.0623    3.6542    0.7479 C.ar      1 ACP         0.2808
     24 N7         -0.8074    4.3516    0.0193 N.pl3     1 ACP        -0.5040
     25 C5         -0.9855    3.6123   -1.0979 C.ar      1 ACP        -0.2807
     26 C6         -1.7474    3.7860   -2.2156 C.ar      1 ACP         0.7712
     27 N6         -2.5511    4.9389   -2.3303 N.pl3     1 ACP        -0.9461
     28 N1         -1.7375    2.8675   -3.2064 N.ar      1 ACP        -0.7457
     29 C2         -0.9330    1.7853   -3.0121 C.ar      1 ACP         0.7201
     30 N3         -0.1423    1.5179   -1.9478 N.ar      1 ACP        -0.6849
     31 C4         -0.2044    2.4690   -1.0113 C.ar      1 ACP         0.6369
     32 HOG2        5.6886    2.9072   -7.4572 H         1 ACP         0.4781
     33 HOG3        7.2444    0.2674   -6.7998 H         1 ACP         0.4781
     34 H3B1        3.0739    1.7492   -6.0909 H         1 ACP         0.1236
     35 H3B2        3.7114    1.2246   -7.6463 H         1 ACP         0.1236
     36 HOA2        0.5592   -2.8268   -3.3659 H         1 ACP         0.4716
     37 H5'1        2.5577    0.5244   -2.5962 H         1 ACP         0.0529
     38 H5'2        1.1970   -0.4361   -1.9603 H         1 ACP         0.0529
     39 H4'         3.8049   -0.1388   -0.4009 H         1 ACP         0.1213
     40 H3'         1.6783   -1.7629    0.2715 H         1 ACP         0.0524
     41 HO3'        2.2232   -1.2979    2.3953 H         1 ACP         0.4707
     42 H2'        -0.0011    0.0027    0.0003 H         1 ACP         0.0774
     43 HO2'       -0.6141    0.5574    2.1082 H         1 ACP         0.4561
     44 H1'         1.7826    1.9024    1.6451 H         1 ACP         0.1559
     45 H8          0.4111    3.9873    1.7100 H         1 ACP         0.2754
     46 HN61       -2.5859    5.5874   -1.5698 H         1 ACP         0.4584
     47 HN62       -3.1449    5.0423   -3.1284 H         1 ACP         0.4584
     48 H2         -0.9279    1.0504   -3.8088 H         1 ACP         0.0892
     49 H49        -1.2303    5.2364    0.2633 H         1 ACP         0.5039
@<TRIPOS>BOND
     1    1    2 2
     2    1    3 1
     3    1    4 1
     4    1    8 1
     5    3   32 1
     6    4   33 1
     7    5    6 2
     8    5    7 1
     9    5    8 1
    10    5   12 1
    11    8   34 1
    12    8   35 1
    13    9   10 2
    14    9   11 1
    15    9   12 1
    16    9   13 1
    17   11   36 1
    18   13   14 1
    19   14   15 1
    20   14   37 1
    21   14   38 1
    22   15   16 1
    23   15   17 1
    24   15   39 1
    25   16   21 1
    26   17   18 1
    27   17   19 1
    28   17   40 1
    29   18   41 1
    30   19   20 1
    31   19   21 1
    32   19   42 1
    33   20   43 1
    34   21   22 1
    35   21   44 1
    36   22   23 ar
    37   22   31 ar
    38   23   24 ar
    39   23   45 1
    40   24   25 ar
    41   24   49 1
    42   25   26 ar
    43   25   31 ar
    44   26   27 1
    45   26   28 ar
    46   27   46 1
    47   27   47 1
    48   28   29 ar
    49   29   30 ar
    50   29   48 1
    51   30   31 ar
@<TRIPOS>SUBSTRUCTURE
     1 ACP         1 GROUP 0 A     ****
@<TRIPOS>MOLECULE
[[5-(6-amino-7,8-dihydropurin-8-ylium-9-yl)-3,4-dihydroxy-tetrahydrofuran-2-yl]methoxy-hydroxy-phosphoryl]oxy-(phosphonomethyl)phosphinate
   49    51     1     0     0
SMALL
USER_CHARGES

@<TRIPOS>ATOM
      1 PG          0.8483    1.4862   -6.2741 P.3       1 ACP         1.6362
      2 O1G        -0.6434    1.6186   -6.2057 O.2       1 ACP        -0.8691
      3 O2G         1.5964    2.5401   -7.2436 O.3       1 ACP        -0.8016
      4 O3G         1.6238    1.6474   -4.8661 O.3       1 ACP        -0.8016
      5 PB          1.0204   -1.7062   -6.0250 P.3       1 ACP         1.4874
      6 O1B         1.6708   -2.8171   -6.8164 O.co2     1 ACP        -0.8240
      7 O2B        -0.4610   -1.6897   -5.7272 O.co2     1 ACP        -0.8240
      8 C3B         1.4255   -0.1161   -6.8789 C.3       1 ACP        -0.6510
      9 PA          2.1858   -2.4502   -3.4210 P.3       1 ACP         1.7966
     10 O1A         2.9584   -3.6795   -3.8027 O.2       1 ACP        -0.8436
     11 O2A         0.7319   -2.7483   -2.7769 O.3       1 ACP        -0.8190
     12 O3A         1.8605   -1.4518   -4.6510 O.3       1 ACP        -0.7947
     13 O5'         2.9195   -1.4814   -2.3528 O.3       1 ACP        -0.5846
     14 C5'         2.2816   -0.2918   -1.9206 C.3       1 ACP         0.2005
     15 C4'         2.7248    0.0226   -0.4980 C.3       1 ACP         0.0711
     16 O4'         2.4697    1.4219   -0.2462 O.3       1 ACP        -0.4064
     17 C3'         1.9404   -0.7419    0.5596 C.3       1 ACP         0.0975
     18 O3'         2.7418   -0.8086    1.7389 O.3       1 ACP        -0.5957
     19 C2'         0.7477    0.1630    0.7858 C.3       1 ACP         0.1195
     20 O2'         0.1373   -0.0577    2.0407 O.3       1 ACP        -0.5845
     21 C1'         1.3733    1.5427    0.6747 C.3       1 ACP         0.4064
     22 N9          0.4520    2.5240    0.1767 N.pl3     1 ACP        -0.5630
     23 C8         -0.5899    2.3466   -0.6224 C.ar      1 ACP         0.2808
     24 N7         -1.2514    3.4689   -0.8989 N.pl3     1 ACP        -0.5040
     25 C5         -0.5826    4.4323   -0.2272 C.ar      1 ACP        -0.2807
     26 C6         -0.7636    5.7789   -0.1086 C.ar      1 ACP         0.7712
     27 N6         -1.8382    6.3927   -0.7843 N.pl3     1 ACP        -0.9461
     28 N1          0.0741    6.5233    0.6461 N.ar      1 ACP        -0.7457
     29 C2          1.0845    5.8486    1.2626 C.ar      1 ACP         0.7201
     30 N3          1.3516    4.5236    1.2116 N.ar      1 ACP        -0.6849
     31 C4          0.4827    3.8546    0.4481 C.ar      1 ACP         0.6369
     32 HOG2        1.5064    3.4998   -7.0619 H         1 ACP         0.4781
     33 HOG3        2.6016    1.5702   -4.8504 H         1 ACP         0.4781
     34 H3B1        1.0576   -0.2233   -7.9056 H         1 ACP         0.1236
     35 H3B2        2.5192   -0.0736   -6.9351 H         1 ACP         0.1236
     36 HOA2        0.6780   -3.2767   -1.9523 H         1 ACP         0.4716
     37 H5'1        2.5577    0.5244   -2.5962 H         1 ACP         0.0529
     38 H5'2        1.1970   -0.4361   -1.9603 H         1 ACP         0.0529
     39 H4'         3.8049   -0.1388   -0.4009 H         1 ACP         0.1213
     40 H3'         1.6783   -1.7629    0.2715 H         1 ACP         0.0524
     41 HO3'        2.2232   -1.2979    2.3953 H         1 ACP         0.4707
     42 H2'        -0.0011    0.0027    0.0003 H         1 ACP         0.0774
     43 HO2'       -0.6141    0.5574    2.1082 H         1 ACP         0.4561
     44 H1'         1.7826    1.9024    1.6451 H         1 ACP         0.1559
     45 H8         -0.8833    1.3888   -1.0158 H         1 ACP         0.2754
     46 HN61       -2.4225    5.8385   -1.3773 H         1 ACP         0.4584
     47 HN62       -1.9421    7.3862   -0.7348 H         1 ACP         0.4584
     48 H2          1.7546    6.4491    1.8670 H         1 ACP         0.0892
     49 H49        -2.0705    3.5612   -1.4834 H         1 ACP         0.5039
@<TRIPOS>BOND
     1    1    2 2
     2    1    3 1
     3    1    4 1
     4    1    8 1
     5    3   32 1
     6    4   33 1
     7    5    6 2
     8    5    7 1
     9    5    8 1
    10    5   12 1
    11    8   34 1
    12    8   35 1
    13    9   10 2
    14    9   11 1
    15    9   12 1
    16    9   13 1
    17   11   36 1
    18   13   14 1
    19   14   15 1
    20   14   37 1
    21   14   38 1
    22   15   16 1
    23   15   17 1
    24   15   39 1
    25   16   21 1
    26   17   18 1
    27   17   19 1
    28   17   40 1
    29   18   41 1
    30   19   20 1
    31   19   21 1
    32   19   42 1
    33   20   43 1
    34   21   22 1
    35   21   44 1
    36   22   23 ar
    37   22   31 ar
    38   23   24 ar
    39   23   45 1
    40   24   25 ar
    41   24   49 1
    42   25   26 ar
    43   25   31 ar
    44   26   27 1
    45   26   28 ar
    46   27   46 1
    47   27   47 1
    48   28   29 ar
    49   29   30 ar
    50   29   48 1
    51   30   31 ar
@<TRIPOS>SUBSTRUCTURE
     1 ACP         1 GROUP 0 A     ****
@<TRIPOS>MOLECULE
[[5-(6-amino-7,8-dihydropurin-8-ylium-9-yl)-3,4-dihydroxy-tetrahydrofuran-2-yl]methoxy-hydroxy-phosphoryl]oxy-(phosphonomethyl)phosphinate
   49    51     1     0     0
SMALL
USER_CHARGES

@<TRIPOS>ATOM
      1 PG          1.2835   -4.4626   -3.1667 P.3       1 ACP         1.6362
      2 O1G         2.1746   -4.2801   -1.9750 O.2       1 ACP        -0.8691
      3 O2G         0.7520   -5.9681   -3.4136 O.3       1 ACP        -0.8016
      4 O3G        -0.0679   -3.5775   -3.1639 O.3       1 ACP        -0.8016
      5 PB          2.6962   -2.3340   -5.1048 P.3       1 ACP         1.4874
      6 O1B         1.5296   -1.3801   -4.9909 O.co2     1 ACP        -0.8240
      7 O2B         3.5384   -2.4311   -6.3556 O.co2     1 ACP        -0.8240
      8 C3B         2.0533   -4.0304   -4.7438 C.3       1 ACP        -0.6510
      9 PA          4.4719   -0.8828   -3.2519 P.3       1 ACP         1.7966
     10 O1A         5.4781   -0.3202   -4.2136 O.2       1 ACP        -0.8436
     11 O2A         5.1001   -1.3964   -1.8523 O.3       1 ACP        -0.8190
     12 O3A         3.6630   -2.1706   -3.8021 O.3       1 ACP        -0.7947
     13 O5'         3.2874    0.1331   -2.8242 O.3       1 ACP        -0.5846
     14 C5'         2.2816   -0.2918   -1.9206 C.3       1 ACP         0.2005
     15 C4'         2.7248    0.0226   -0.4980 C.3       1 ACP         0.0711
     16 O4'         2.4697    1.4219   -0.2462 O.3       1 ACP        -0.4064
     17 C3'         1.9404   -0.7419    0.5596 C.3       1 ACP         0.0975
     18 O3'         2.7418   -0.8086    1.7389 O.3       1 ACP        -0.5957
     19 C2'         0.7477    0.1630    0.7858 C.3       1 ACP         0.1195
     20 O2'         0.1373   -0.0577    2.0407 O.3       1 ACP        -0.5845
     21 C1'         1.3733    1.5427    0.6747 C.3       1 ACP         0.4064
     22 N9          0.4520    2.5240    0.1767 N.pl3     1 ACP        -0.5630
     23 C8         -0.8602    2.5861    0.3496 C.ar      1 ACP         0.2808
     24 N7         -1.4308    3.6326   -0.2443 N.pl3     1 ACP        -0.5040
     25 C5         -0.4080    4.2856   -0.8394 C.ar      1 ACP        -0.2807
     26 C6         -0.3432    5.4196   -1.5943 C.ar      1 ACP         0.7712
     27 N6         -1.5276    6.1333   -1.8702 N.pl3     1 ACP        -0.9461
     28 N1          0.8395    5.8603   -2.0764 N.ar      1 ACP        -0.7457
     29 C2          1.9319    5.1095   -1.7617 C.ar      1 ACP         0.7201
     30 N3          1.9773    3.9761   -1.0249 N.ar      1 ACP        -0.6849
     31 C4          0.7724    3.6031   -0.5836 C.ar      1 ACP         0.6369
     32 HOG2        0.1652   -6.1455   -4.1794 H         1 ACP         0.4781
     33 HOG3       -0.7119   -3.6955   -2.4334 H         1 ACP         0.4781
     34 H3B1        2.9014   -4.7101   -4.8840 H         1 ACP         0.1236
     35 H3B2        1.3306   -4.2546   -5.5366 H         1 ACP         0.1236
     36 HOA2        5.7744   -2.1086   -1.8682 H         1 ACP         0.4716
     37 H5'1        1.3494    0.2322   -2.1552 H         1 ACP         0.0529
     38 H5'2        2.1260   -1.3686   -2.0435 H         1 ACP         0.0529
     39 H4'         3.8049   -0.1388   -0.4009 H         1 ACP         0.1213
     40 H3'         1.6783   -1.7629    0.2715 H         1 ACP         0.0524
     41 HO3'        2.2232   -1.2979    2.3953 H         1 ACP         0.4707
     42 H2'        -0.0011    0.0027    0.0003 H         1 ACP         0.0774
     43 HO2'       -0.1563   -0.9855    2.0596 H         1 ACP         0.4561
     44 H1'         1.7826    1.9024    1.6451 H         1 ACP         0.1559
     45 H8         -1.4217    1.8638    0.9164 H         1 ACP         0.2754
     46 HN61       -2.4023    5.7711   -1.5477 H         1 ACP         0.4584
     47 HN62       -1.4856    6.9379   -2.4627 H         1 ACP         0.4584
     48 H2          2.8789    5.4660   -2.1503 H         1 ACP         0.0892
     49 H49        -2.4129    3.8706   -0.2402 H         1 ACP         0.5039
@<TRIPOS>BOND
     1    1    2 2
     2    1    3 1
     3    1    4 1
     4    1    8 1
     5    3   32 1
     6    4   33 1
     7    5    6 2
     8    5    7 1
     9    5    8 1
    10    5   12 1
    11    8   34 1
    12    8   35 1
    13    9   10 2
    14    9   11 1
    15    9   12 1
    16    9   13 1
    17   11   36 1
    18   13   14 1
    19   14   15 1
    20   14   37 1
    21   14   38 1
    22   15   16 1
    23   15   17 1
    24   15   39 1
    25   16   21 1
    26   17   18 1
    27   17   19 1
    28   17   40 1
    29   18   41 1
    30   19   20 1
    31   19   21 1
    32   19   42 1
    33   20   43 1
    34   21   22 1
    35   21   44 1
    36   22   23 ar
    37   22   31 ar
    38   23   24 ar
    39   23   45 1
    40   24   25 ar
    41   24   49 1
    42   25   26 ar
    43   25   31 ar
    44   26   27 1
    45   26   28 ar
    46   27   46 1
    47   27   47 1
    48   28   29 ar
    49   29   30 ar
    50   29   48 1
    51   30   31 ar
@<TRIPOS>SUBSTRUCTURE
     1 ACP         1 GROUP 0 A     ****
@<TRIPOS>MOLECULE
[[5-(6-amino-7,8-dihydropurin-8-ylium-9-yl)-3,4-dihydroxy-tetrahydrofuran-2-yl]methoxy-hydroxy-phosphoryl]oxy-(phosphonomethyl)phosphinate
   49    51     1     0     0
SMALL
USER_CHARGES

@<TRIPOS>ATOM
      1 PG          0.8096   -4.3160    6.8486 P.3       1 ACP         1.6362
      2 O1G         1.2041   -4.1005    5.4185 O.2       1 ACP        -0.8691
      3 O2G         0.8233   -5.8517    7.3500 O.3       1 ACP        -0.8016
      4 O3G         1.7200   -3.5505    7.9418 O.3       1 ACP        -0.8016
      5 PB         -2.3649   -4.4511    6.4156 P.3       1 ACP         1.4874
      6 O1B        -3.5659   -3.7517    7.0088 O.co2     1 ACP        -0.8240
      7 O2B        -2.2273   -5.9559    6.4158 O.co2     1 ACP        -0.8240
      8 C3B        -0.8638   -3.7634    7.2496 C.3       1 ACP        -0.6510
      9 PA         -3.0212   -3.8715    3.6003 P.3       1 ACP         1.7966
     10 O1A        -4.3226   -3.1408    3.7625 O.2       1 ACP        -0.8436
     11 O2A        -3.1769   -5.4412    3.2407 O.3       1 ACP        -0.8190
     12 O3A        -2.0826   -3.8733    4.9174 O.3       1 ACP        -0.7947
     13 O5'        -2.0397   -3.2817    2.4572 O.3       1 ACP        -0.5846
     14 C5'        -0.7840   -3.8935    2.2172 C.3       1 ACP         0.2005
     15 C4'        -0.0724   -3.1466    1.1027 C.3       1 ACP         0.0711
     16 O4'        -0.8674   -3.1929   -0.0945 O.3       1 ACP        -0.4064
     17 C3'         0.1338   -1.6715    1.4027 C.3       1 ACP         0.0975
     18 O3'         1.2893   -1.4445    2.1808 O.3       1 ACP        -0.5957
     19 C2'         0.2158   -1.0724    0.0128 C.3       1 ACP         0.1195
     20 O2'         1.5141   -1.2448   -0.5513 O.3       1 ACP        -0.5845
     21 C1'        -0.7897   -1.9176   -0.7583 C.3       1 ACP         0.4064
     22 N9         -2.1040   -1.3333   -0.7704 N.pl3     1 ACP        -0.5630
     23 C8         -2.6611   -0.5376    0.1306 C.ar      1 ACP         0.2808
     24 N7         -3.9008   -0.1619   -0.1787 N.pl3     1 ACP        -0.5040
     25 C5         -4.1527   -0.7619   -1.3633 C.ar      1 ACP        -0.2807
     26 C6         -5.2376   -0.7682   -2.1896 C.ar      1 ACP         0.7712
     27 N6         -6.3842   -0.0312   -1.8286 N.pl3     1 ACP        -0.9461
     28 N1         -5.2214   -1.4713   -3.3433 N.ar      1 ACP        -0.7457
     29 C2         -4.0737   -2.1541   -3.6127 C.ar      1 ACP         0.7201
     30 N3         -2.9476   -2.2143   -2.8660 N.ar      1 ACP        -0.6849
     31 C4         -3.0383   -1.4958   -1.7429 C.ar      1 ACP         0.6369
     32 HOG2        0.5736   -6.0513    8.2774 H         1 ACP         0.4781
     33 HOG3        2.6797   -3.7492    7.9842 H         1 ACP         0.4781
     34 H3B1       -1.0101   -3.9345    8.3221 H         1 ACP         0.1236
     35 H3B2       -0.9006   -2.6795    7.0917 H         1 ACP         0.1236
     36 HOA2       -3.6470   -5.6948    2.4181 H         1 ACP         0.4716
     37 H5'1       -0.1919   -3.8613    3.1376 H         1 ACP         0.0529
     38 H5'2       -0.9466   -4.9385    1.9341 H         1 ACP         0.0529
     39 H4'         0.8886   -3.6448    0.8780 H         1 ACP         0.1213
     40 H3'        -0.7374   -1.2358    1.9870 H         1 ACP         0.0524
     41 HO3'        1.3408   -0.4870    2.3219 H         1 ACP         0.4707
     42 H2'        -0.0384   -0.0310    0.0096 H         1 ACP         0.0774
     43 HO2'        2.1463   -0.7958    0.0370 H         1 ACP         0.4561
     44 H1'        -0.4769   -2.1002   -1.8093 H         1 ACP         0.1559
     45 H8         -2.1661   -0.2178    1.0311 H         1 ACP         0.2754
     46 HN61       -6.4010    0.4463   -0.9500 H         1 ACP         0.4584
     47 HN62       -7.1957   -0.0744   -2.4116 H         1 ACP         0.4584
     48 H2         -4.0645   -2.7171   -4.5389 H         1 ACP         0.0892
     49 H49        -4.5050    0.4395    0.3640 H         1 ACP         0.5039
@<TRIPOS>BOND
     1    1    2 2
     2    1    3 1
     3    1    4 1
     4    1    8 1
     5    3   32 1
     6    4   33 1
     7    5    6 2
     8    5    7 1
     9    5    8 1
    10    5   12 1
    11    8   34 1
    12    8   35 1
    13    9   10 2
    14    9   11 1
    15    9   12 1
    16    9   13 1
    17   11   36 1
    18   13   14 1
    19   14   15 1
    20   14   37 1
    21   14   38 1
    22   15   16 1
    23   15   17 1
    24   15   39 1
    25   16   21 1
    26   17   18 1
    27   17   19 1
    28   17   40 1
    29   18   41 1
    30   19   20 1
    31   19   21 1
    32   19   42 1
    33   20   43 1
    34   21   22 1
    35   21   44 1
    36   22   23 ar
    37   22   31 ar
    38   23   24 ar
    39   23   45 1
    40   24   25 ar
    41   24   49 1
    42   25   26 ar
    43   25   31 ar
    44   26   27 1
    45   26   28 ar
    46   27   46 1
    47   27   47 1
    48   28   29 ar
    49   29   30 ar
    50   29   48 1
    51   30   31 ar
@<TRIPOS>SUBSTRUCTURE
     1 ACP         1 GROUP 0 A     ****
@<TRIPOS>MOLECULE
[[5-(6-amino-7,8-dihydropurin-8-ylium-9-yl)-3,4-dihydroxy-tetrahydrofuran-2-yl]methoxy-hydroxy-phosphoryl]oxy-(phosphonomethyl)phosphinate
   49    51     1     0     0
SMALL
USER_CHARGES

@<TRIPOS>ATOM
      1 PG          6.4218    0.4044   -6.1916 P.3       1 ACP         1.6362
      2 O1G         5.1678    0.1324   -6.9669 O.2       1 ACP        -0.8691
      3 O2G         7.6384   -0.6260   -6.4530 O.3       1 ACP        -0.8016
      4 O3G         7.0903    1.8538   -6.4407 O.3       1 ACP        -0.8016
      5 PB          5.6296   -1.1607   -3.5072 P.3       1 ACP         1.4874
      6 O1B         5.5803   -0.8227   -2.0352 O.co2     1 ACP        -0.8240
      7 O2B         6.4275   -2.3284   -4.0395 O.co2     1 ACP        -0.8240
      8 C3B         6.2124    0.3525   -4.3971 C.3       1 ACP        -0.6510
      9 PA          2.8566   -2.1440   -3.6977 P.3       1 ACP         1.7966
     10 O1A         3.0940   -3.6176   -3.8586 O.2       1 ACP        -0.8436
     11 O2A         1.6428   -1.5611   -4.5945 O.3       1 ACP        -0.8190
     12 O3A         4.1138   -1.2120   -4.1056 O.3       1 ACP        -0.7947
     13 O5'         2.5233   -1.6622   -2.1894 O.3       1 ACP        -0.5846
     14 C5'         2.2816   -0.2918   -1.9206 C.3       1 ACP         0.2005
     15 C4'         2.7248    0.0226   -0.4980 C.3       1 ACP         0.0711
     16 O4'         2.4697    1.4219   -0.2462 O.3       1 ACP        -0.4064
     17 C3'         1.9404   -0.7419    0.5596 C.3       1 ACP         0.0975
     18 O3'         2.7418   -0.8086    1.7389 O.3       1 ACP        -0.5957
     19 C2'         0.7477    0.1630    0.7858 C.3       1 ACP         0.1195
     20 O2'         0.1373   -0.0577    2.0407 O.3       1 ACP        -0.5845
     21 C1'         1.3733    1.5427    0.6747 C.3       1 ACP         0.4064
     22 N9          0.4520    2.5240    0.1767 N.pl3     1 ACP        -0.5630
     23 C8         -0.8602    2.5861    0.3496 C.ar      1 ACP         0.2808
     24 N7         -1.4308    3.6326   -0.2443 N.pl3     1 ACP        -0.5040
     25 C5         -0.4080    4.2856   -0.8394 C.ar      1 ACP        -0.2807
     26 C6         -0.3432    5.4196   -1.5943 C.ar      1 ACP         0.7712
     27 N6         -1.5276    6.1333   -1.8702 N.pl3     1 ACP        -0.9461
     28 N1          0.8395    5.8603   -2.0764 N.ar      1 ACP        -0.7457
     29 C2          1.9319    5.1095   -1.7617 C.ar      1 ACP         0.7201
     30 N3          1.9773    3.9761   -1.0249 N.ar      1 ACP        -0.6849
     31 C4          0.7724    3.6031   -0.5836 C.ar      1 ACP         0.6369
     32 HOG2        7.5055   -1.5780   -6.2573 H         1 ACP         0.4781
     33 HOG3        7.3788    2.0948   -7.3468 H         1 ACP         0.4781
     34 H3B1        7.1810    0.6087   -3.9533 H         1 ACP         0.1236
     35 H3B2        5.5146    1.1518   -4.1227 H         1 ACP         0.1236
     36 HOA2        0.7398   -1.9201   -4.4610 H         1 ACP         0.4716
     37 H5'1        2.8428    0.3150   -2.6387 H         1 ACP         0.0529
     38 H5'2        1.2124   -0.0896   -2.0417 H         1 ACP         0.0529
     39 H4'         3.8049   -0.1388   -0.4009 H         1 ACP         0.1213
     40 H3'         1.6783   -1.7629    0.2715 H         1 ACP         0.0524
     41 HO3'        2.2232   -1.2979    2.3953 H         1 ACP         0.4707
     42 H2'        -0.0011    0.0027    0.0003 H         1 ACP         0.0774
     43 HO2'       -0.1563   -0.9855    2.0596 H         1 ACP         0.4561
     44 H1'         1.7826    1.9024    1.6451 H         1 ACP         0.1559
     45 H8         -1.4217    1.8638    0.9164 H         1 ACP         0.2754
     46 HN61       -2.4023    5.7711   -1.5477 H         1 ACP         0.4584
     47 HN62       -1.4856    6.9379   -2.4627 H         1 ACP         0.4584
     48 H2          2.8789    5.4660   -2.1503 H         1 ACP         0.0892
     49 H49        -2.4129    3.8706   -0.2402 H         1 ACP         0.5039
@<TRIPOS>BOND
     1    1    2 2
     2    1    3 1
     3    1    4 1
     4    1    8 1
     5    3   32 1
     6    4   33 1
     7    5    6 2
     8    5    7 1
     9    5    8 1
    10    5   12 1
    11    8   34 1
    12    8   35 1
    13    9   10 2
    14    9   11 1
    15    9   12 1
    16    9   13 1
    17   11   36 1
    18   13   14 1
    19   14   15 1
    20   14   37 1
    21   14   38 1
    22   15   16 1
    23   15   17 1
    24   15   39 1
    25   16   21 1
    26   17   18 1
    27   17   19 1
    28   17   40 1
    29   18   41 1
    30   19   20 1
    31   19   21 1
    32   19   42 1
    33   20   43 1
    34   21   22 1
    35   21   44 1
    36   22   23 ar
    37   22   31 ar
    38   23   24 ar
    39   23   45 1
    40   24   25 ar
    41   24   49 1
    42   25   26 ar
    43   25   31 ar
    44   26   27 1
    45   26   28 ar
    46   27   46 1
    47   27   47 1
    48   28   29 ar
    49   29   30 ar
    50   29   48 1
    51   30   31 ar
@<TRIPOS>SUBSTRUCTURE
     1 ACP         1 GROUP 0 A     ****
@<TRIPOS>MOLECULE
[[5-(6-amino-7,8-dihydropurin-8-ylium-9-yl)-3,4-dihydroxy-tetrahydrofuran-2-yl]methoxy-hydroxy-phosphoryl]oxy-(phosphonomethyl)phosphinate
   49    51     1     0     0
SMALL
USER_CHARGES

@<TRIPOS>ATOM
      1 PG         -1.0082   -4.7262    8.1436 P.3       1 ACP         1.6362
      2 O1G         0.0355   -5.4340    8.9543 O.2       1 ACP        -0.8691
      3 O2G        -2.0091   -5.6827    7.3108 O.3       1 ACP        -0.8016
      4 O3G        -2.0048   -3.7690    8.9805 O.3       1 ACP        -0.8016
      5 PB         -1.4275   -2.6340    5.7500 P.3       1 ACP         1.4874
      6 O1B        -0.5201   -1.8381    4.8406 O.co2     1 ACP        -0.8240
      7 O2B        -2.4864   -1.9786    6.6058 O.co2     1 ACP        -0.8240
      8 C3B        -0.3432   -3.6198    6.8787 C.3       1 ACP        -0.6510
      9 PA         -3.0212   -3.8715    3.6003 P.3       1 ACP         1.7966
     10 O1A        -4.3226   -3.1408    3.7625 O.2       1 ACP        -0.8436
     11 O2A        -3.1769   -5.4412    3.2407 O.3       1 ACP        -0.8190
     12 O3A        -2.0826   -3.8733    4.9174 O.3       1 ACP        -0.7947
     13 O5'        -2.0397   -3.2817    2.4572 O.3       1 ACP        -0.5846
     14 C5'        -0.7840   -3.8935    2.2172 C.3       1 ACP         0.2005
     15 C4'        -0.0724   -3.1466    1.1027 C.3       1 ACP         0.0711
     16 O4'        -0.8674   -3.1929   -0.0945 O.3       1 ACP        -0.4064
     17 C3'         0.1338   -1.6715    1.4027 C.3       1 ACP         0.0975
     18 O3'         1.2893   -1.4445    2.1808 O.3       1 ACP        -0.5957
     19 C2'         0.2158   -1.0724    0.0128 C.3       1 ACP         0.1195
     20 O2'         1.5141   -1.2448   -0.5513 O.3       1 ACP        -0.5845
     21 C1'        -0.7897   -1.9176   -0.7583 C.3       1 ACP         0.4064
     22 N9         -2.1040   -1.3333   -0.7704 N.pl3     1 ACP        -0.5630
     23 C8         -2.6611   -0.5376    0.1306 C.ar      1 ACP         0.2808
     24 N7         -3.9008   -0.1619   -0.1787 N.pl3     1 ACP        -0.5040
     25 C5         -4.1527   -0.7619   -1.3633 C.ar      1 ACP        -0.2807
     26 C6         -5.2376   -0.7682   -2.1896 C.ar      1 ACP         0.7712
     27 N6         -6.3842   -0.0312   -1.8286 N.pl3     1 ACP        -0.9461
     28 N1         -5.2214   -1.4713   -3.3433 N.ar      1 ACP        -0.7457
     29 C2         -4.0737   -2.1541   -3.6127 C.ar      1 ACP         0.7201
     30 N3         -2.9476   -2.2143   -2.8660 N.ar      1 ACP        -0.6849
     31 C4         -3.0383   -1.4958   -1.7429 C.ar      1 ACP         0.6369
     32 HOG2       -2.7119   -5.2731    6.7627 H         1 ACP         0.4781
     33 HOG3       -2.5579   -4.1620    9.6889 H         1 ACP         0.4781
     34 H3B1        0.2969   -2.8933    7.3919 H         1 ACP         0.1236
     35 H3B2        0.3079   -4.2149    6.2284 H         1 ACP         0.1236
     36 HOA2       -3.6526   -6.0264    3.8679 H         1 ACP         0.4716
     37 H5'1       -0.1919   -3.8613    3.1376 H         1 ACP         0.0529
     38 H5'2       -0.9466   -4.9385    1.9341 H         1 ACP         0.0529
     39 H4'         0.8886   -3.6448    0.8780 H         1 ACP         0.1213
     40 H3'        -0.7374   -1.2358    1.9870 H         1 ACP         0.0524
     41 HO3'        1.1626   -1.9325    3.0084 H         1 ACP         0.4707
     42 H2'        -0.0384   -0.0310    0.0096 H         1 ACP         0.0774
     43 HO2'        1.4998   -0.8412   -1.4369 H         1 ACP         0.4561
     44 H1'        -0.4769   -2.1002   -1.8093 H         1 ACP         0.1559
     45 H8         -2.1661   -0.2178    1.0311 H         1 ACP         0.2754
     46 HN61       -6.4010    0.4463   -0.9500 H         1 ACP         0.4584
     47 HN62       -7.1957   -0.0744   -2.4116 H         1 ACP         0.4584
     48 H2         -4.0645   -2.7171   -4.5389 H         1 ACP         0.0892
     49 H49        -4.5050    0.4395    0.3640 H         1 ACP         0.5039
@<TRIPOS>BOND
     1    1    2 2
     2    1    3 1
     3    1    4 1
     4    1    8 1
     5    3   32 1
     6    4   33 1
     7    5    6 2
     8    5    7 1
     9    5    8 1
    10    5   12 1
    11    8   34 1
    12    8   35 1
    13    9   10 2
    14    9   11 1
    15    9   12 1
    16    9   13 1
    17   11   36 1
    18   13   14 1
    19   14   15 1
    20   14   37 1
    21   14   38 1
    22   15   16 1
    23   15   17 1
    24   15   39 1
    25   16   21 1
    26   17   18 1
    27   17   19 1
    28   17   40 1
    29   18   41 1
    30   19   20 1
    31   19   21 1
    32   19   42 1
    33   20   43 1
    34   21   22 1
    35   21   44 1
    36   22   23 ar
    37   22   31 ar
    38   23   24 ar
    39   23   45 1
    40   24   25 ar
    41   24   49 1
    42   25   26 ar
    43   25   31 ar
    44   26   27 1
    45   26   28 ar
    46   27   46 1
    47   27   47 1
    48   28   29 ar
    49   29   30 ar
    50   29   48 1
    51   30   31 ar
@<TRIPOS>SUBSTRUCTURE
     1 ACP         1 GROUP 0 A     ****
@<TRIPOS>MOLECULE
[[5-(6-amino-7,8-dihydropurin-8-ylium-9-yl)-3,4-dihydroxy-tetrahydrofuran-2-yl]methoxy-hydroxy-phosphoryl]oxy-(phosphonomethyl)phosphinate
   49    51     1     0     0
SMALL
USER_CHARGES

@<TRIPOS>ATOM
      1 PG          0.4506    1.4511   -5.6022 P.3       1 ACP         1.6362
      2 O1G        -0.4458    0.7127   -4.6543 O.2       1 ACP        -0.8691
      3 O2G        -0.3009    2.2730   -6.7726 O.3       1 ACP        -0.8016
      4 O3G         1.4188    2.5527   -4.9249 O.3       1 ACP        -0.8016
      5 PB          2.8638   -0.6598   -5.6632 P.3       1 ACP         1.4874
      6 O1B         3.7582    0.2630   -4.8682 O.co2     1 ACP        -0.8240
      7 O2B         3.4097   -1.6201   -6.6944 O.co2     1 ACP        -0.8240
      8 C3B         1.6029    0.3957   -6.5104 C.3       1 ACP        -0.6510
      9 PA          2.1858   -2.4502   -3.4210 P.3       1 ACP         1.7966
     10 O1A         2.9584   -3.6795   -3.8027 O.2       1 ACP        -0.8436
     11 O2A         0.7319   -2.7483   -2.7769 O.3       1 ACP        -0.8190
     12 O3A         1.8605   -1.4518   -4.6510 O.3       1 ACP        -0.7947
     13 O5'         2.9195   -1.4814   -2.3528 O.3       1 ACP        -0.5846
     14 C5'         2.2816   -0.2918   -1.9206 C.3       1 ACP         0.2005
     15 C4'         2.7248    0.0226   -0.4980 C.3       1 ACP         0.0711
     16 O4'         2.4697    1.4219   -0.2462 O.3       1 ACP        -0.4064
     17 C3'         1.9404   -0.7419    0.5596 C.3       1 ACP         0.0975
     18 O3'         2.7418   -0.8086    1.7389 O.3       1 ACP        -0.5957
     19 C2'         0.7477    0.1630    0.7858 C.3       1 ACP         0.1195
     20 O2'         0.1373   -0.0577    2.0407 O.3       1 ACP        -0.5845
     21 C1'         1.3733    1.5427    0.6747 C.3       1 ACP         0.4064
     22 N9          0.4520    2.5240    0.1767 N.pl3     1 ACP        -0.5630
     23 C8         -0.8602    2.5861    0.3496 C.ar      1 ACP         0.2808
     24 N7         -1.4308    3.6326   -0.2443 N.pl3     1 ACP        -0.5040
     25 C5         -0.4080    4.2856   -0.8394 C.ar      1 ACP        -0.2807
     26 C6         -0.3432    5.4196   -1.5943 C.ar      1 ACP         0.7712
     27 N6         -1.5276    6.1333   -1.8702 N.pl3     1 ACP        -0.9461
     28 N1          0.8395    5.8603   -2.0764 N.ar      1 ACP        -0.7457
     29 C2          1.9319    5.1095   -1.7617 C.ar      1 ACP         0.7201
     30 N3          1.9773    3.9761   -1.0249 N.ar      1 ACP        -0.6849
     31 C4          0.7724    3.6031   -0.5836 C.ar      1 ACP         0.6369
     32 HOG2       -0.9304    2.9836   -6.5256 H         1 ACP         0.4781
     33 HOG3        2.0274    3.0668   -5.4972 H         1 ACP         0.4781
     34 H3B1        1.0006   -0.2863   -7.1211 H         1 ACP         0.1236
     35 H3B2        2.1611    1.0355   -7.2033 H         1 ACP         0.1236
     36 HOA2        0.0691   -3.2383   -3.3087 H         1 ACP         0.4716
     37 H5'1        2.5577    0.5244   -2.5962 H         1 ACP         0.0529
     38 H5'2        1.1970   -0.4361   -1.9603 H         1 ACP         0.0529
     39 H4'         3.8049   -0.1388   -0.4009 H         1 ACP         0.1213
     40 H3'         1.6783   -1.7629    0.2715 H         1 ACP         0.0524
     41 HO3'        3.5554   -1.2733    1.4914 H         1 ACP         0.4707
     42 H2'        -0.0011    0.0027    0.0003 H         1 ACP         0.0774
     43 HO2'       -0.6141    0.5574    2.1082 H         1 ACP         0.4561
     44 H1'         1.7826    1.9024    1.6451 H         1 ACP         0.1559
     45 H8         -1.4217    1.8638    0.9164 H         1 ACP         0.2754
     46 HN61       -2.4023    5.7711   -1.5477 H         1 ACP         0.4584
     47 HN62       -1.4856    6.9379   -2.4627 H         1 ACP         0.4584
     48 H2          2.8789    5.4660   -2.1503 H         1 ACP         0.0892
     49 H49        -2.4129    3.8706   -0.2402 H         1 ACP         0.5039
@<TRIPOS>BOND
     1    1    2 2
     2    1    3 1
     3    1    4 1
     4    1    8 1
     5    3   32 1
     6    4   33 1
     7    5    6 2
     8    5    7 1
     9    5    8 1
    10    5   12 1
    11    8   34 1
    12    8   35 1
    13    9   10 2
    14    9   11 1
    15    9   12 1
    16    9   13 1
    17   11   36 1
    18   13   14 1
    19   14   15 1
    20   14   37 1
    21   14   38 1
    22   15   16 1
    23   15   17 1
    24   15   39 1
    25   16   21 1
    26   17   18 1
    27   17   19 1
    28   17   40 1
    29   18   41 1
    30   19   20 1
    31   19   21 1
    32   19   42 1
    33   20   43 1
    34   21   22 1
    35   21   44 1
    36   22   23 ar
    37   22   31 ar
    38   23   24 ar
    39   23   45 1
    40   24   25 ar
    41   24   49 1
    42   25   26 ar
    43   25   31 ar
    44   26   27 1
    45   26   28 ar
    46   27   46 1
    47   27   47 1
    48   28   29 ar
    49   29   30 ar
    50   29   48 1
    51   30   31 ar
@<TRIPOS>SUBSTRUCTURE
     1 ACP         1 GROUP 0 A     ****
@<TRIPOS>MOLECULE
[[5-(6-amino-7,8-dihydropurin-8-ylium-9-yl)-3,4-dihydroxy-tetrahydrofuran-2-yl]methoxy-hydroxy-phosphoryl]oxy-(phosphonomethyl)phosphinate
   49    51     1     0     0
SMALL
USER_CHARGES

@<TRIPOS>ATOM
      1 PG          6.4218    0.4044   -6.1916 P.3       1 ACP         1.6362
      2 O1G         7.4090   -0.5891   -6.7262 O.2       1 ACP        -0.8691
      3 O2G         6.7704    1.9553   -6.4797 O.3       1 ACP        -0.8016
      4 O3G         4.9111    0.2452   -6.7415 O.3       1 ACP        -0.8016
      5 PB          5.6296   -1.1607   -3.5072 P.3       1 ACP         1.4874
      6 O1B         5.5803   -0.8227   -2.0352 O.co2     1 ACP        -0.8240
      7 O2B         6.4275   -2.3284   -4.0395 O.co2     1 ACP        -0.8240
      8 C3B         6.2124    0.3525   -4.3971 C.3       1 ACP        -0.6510
      9 PA          2.8566   -2.1440   -3.6977 P.3       1 ACP         1.7966
     10 O1A         3.0940   -3.6176   -3.8586 O.2       1 ACP        -0.8436
     11 O2A         1.6428   -1.5611   -4.5945 O.3       1 ACP        -0.8190
     12 O3A         4.1138   -1.2120   -4.1056 O.3       1 ACP        -0.7947
     13 O5'         2.5233   -1.6622   -2.1894 O.3       1 ACP        -0.5846
     14 C5'         2.2816   -0.2918   -1.9206 C.3       1 ACP         0.2005
     15 C4'         2.7248    0.0226   -0.4980 C.3       1 ACP         0.0711
     16 O4'         2.4697    1.4219   -0.2462 O.3       1 ACP        -0.4064
     17 C3'         1.9404   -0.7419    0.5596 C.3       1 ACP         0.0975
     18 O3'         2.7418   -0.8086    1.7389 O.3       1 ACP        -0.5957
     19 C2'         0.7477    0.1630    0.7858 C.3       1 ACP         0.1195
     20 O2'         0.1373   -0.0577    2.0407 O.3       1 ACP        -0.5845
     21 C1'         1.3733    1.5427    0.6747 C.3       1 ACP         0.4064
     22 N9          0.4520    2.5240    0.1767 N.pl3     1 ACP        -0.5630
     23 C8         -0.3477    3.3274    0.8626 C.ar      1 ACP         0.2808
     24 N7         -1.0836    4.1323    0.0983 N.pl3     1 ACP        -0.5040
     25 C5         -0.7273    3.8194   -1.1674 C.ar      1 ACP        -0.2807
     26 C6         -1.1208    4.2877   -2.3863 C.ar      1 ACP         0.7712
     27 N6         -2.0932    5.3066   -2.4528 N.pl3     1 ACP        -0.9461
     28 N1         -0.5892    3.7853   -3.5223 N.ar      1 ACP        -0.7457
     29 C2          0.3427    2.8040   -3.3648 C.ar      1 ACP         0.7201
     30 N3          0.8012    2.2709   -2.2093 N.ar      1 ACP        -0.6849
     31 C4          0.2307    2.8167   -1.1312 C.ar      1 ACP         0.6369
     32 HOG2        6.8510    2.2598   -7.4087 H         1 ACP         0.4781
     33 HOG3        4.2222    0.8681   -6.4258 H         1 ACP         0.4781
     34 H3B1        7.1810    0.6087   -3.9533 H         1 ACP         0.1236
     35 H3B2        5.5146    1.1518   -4.1227 H         1 ACP         0.1236
     36 HOA2        0.7398   -1.9201   -4.4610 H         1 ACP         0.4716
     37 H5'1        2.8428    0.3150   -2.6387 H         1 ACP         0.0529
     38 H5'2        1.2124   -0.0896   -2.0417 H         1 ACP         0.0529
     39 H4'         3.8049   -0.1388   -0.4009 H         1 ACP         0.1213
     40 H3'         1.6783   -1.7629    0.2715 H         1 ACP         0.0524
     41 HO3'        2.2232   -1.2979    2.3953 H         1 ACP         0.4707
     42 H2'        -0.0011    0.0027    0.0003 H         1 ACP         0.0774
     43 HO2'       -0.6141    0.5574    2.1082 H         1 ACP         0.4561
     44 H1'         1.7826    1.9024    1.6451 H         1 ACP         0.1559
     45 H8         -0.4040    3.3373    1.9373 H         1 ACP         0.2754
     46 HN61       -2.5133    5.6366   -1.6073 H         1 ACP         0.4584
     47 HN62       -2.4153    5.6161   -3.3477 H         1 ACP         0.4584
     48 H2          0.7668    2.4032   -4.2782 H         1 ACP         0.0892
     49 H49        -1.7549    4.8194    0.4122 H         1 ACP         0.5039
@<TRIPOS>BOND
     1    1    2 2
     2    1    3 1
     3    1    4 1
     4    1    8 1
     5    3   32 1
     6    4   33 1
     7    5    6 2
     8    5    7 1
     9    5    8 1
    10    5   12 1
    11    8   34 1
    12    8   35 1
    13    9   10 2
    14    9   11 1
    15    9   12 1
    16    9   13 1
    17   11   36 1
    18   13   14 1
    19   14   15 1
    20   14   37 1
    21   14   38 1
    22   15   16 1
    23   15   17 1
    24   15   39 1
    25   16   21 1
    26   17   18 1
    27   17   19 1
    28   17   40 1
    29   18   41 1
    30   19   20 1
    31   19   21 1
    32   19   42 1
    33   20   43 1
    34   21   22 1
    35   21   44 1
    36   22   23 ar
    37   22   31 ar
    38   23   24 ar
    39   23   45 1
    40   24   25 ar
    41   24   49 1
    42   25   26 ar
    43   25   31 ar
    44   26   27 1
    45   26   28 ar
    46   27   46 1
    47   27   47 1
    48   28   29 ar
    49   29   30 ar
    50   29   48 1
    51   30   31 ar
@<TRIPOS>SUBSTRUCTURE
     1 ACP         1 GROUP 0 A     ****
@<TRIPOS>MOLECULE
[[5-(6-amino-7,8-dihydropurin-8-ylium-9-yl)-3,4-dihydroxy-tetrahydrofuran-2-yl]methoxy-hydroxy-phosphoryl]oxy-(phosphonomethyl)phosphinate
   49    51     1     0     0
SMALL
USER_CHARGES

@<TRIPOS>ATOM
      1 PG         -2.3519   -8.0721    2.0582 P.3       1 ACP         1.6362
      2 O1G        -1.8945   -7.5881    0.7150 O.2       1 ACP        -0.8691
      3 O2G        -3.2571   -7.0326    2.9008 O.3       1 ACP        -0.8016
      4 O3G        -3.2375   -9.4231    2.0435 O.3       1 ACP        -0.8016
      5 PB          0.2440   -7.2259    3.7400 P.3       1 ACP         1.4874
      6 O1B         0.9518   -6.7368    2.4977 O.co2     1 ACP        -0.8240
      7 O2B         0.9908   -7.8195    4.9119 O.co2     1 ACP        -0.8240
      8 C3B        -1.0099   -8.4741    3.2000 C.3       1 ACP        -0.6510
      9 PA         -0.5051   -4.5580    4.7469 P.3       1 ACP         1.7966
     10 O1A         0.4194   -4.4346    5.9232 O.2       1 ACP        -0.8436
     11 O2A        -1.9864   -3.9569    4.9955 O.3       1 ACP        -0.8190
     12 O3A        -0.7854   -6.0774    4.2686 O.3       1 ACP        -0.7947
     13 O5'         0.0089   -3.8407    3.3906 O.3       1 ACP        -0.5846
     14 C5'        -0.7840   -3.8935    2.2172 C.3       1 ACP         0.2005
     15 C4'        -0.0724   -3.1466    1.1027 C.3       1 ACP         0.0711
     16 O4'        -0.8674   -3.1929   -0.0945 O.3       1 ACP        -0.4064
     17 C3'         0.1338   -1.6715    1.4027 C.3       1 ACP         0.0975
     18 O3'         1.2893   -1.4445    2.1808 O.3       1 ACP        -0.5957
     19 C2'         0.2158   -1.0724    0.0128 C.3       1 ACP         0.1195
     20 O2'         1.5141   -1.2448   -0.5513 O.3       1 ACP        -0.5845
     21 C1'        -0.7897   -1.9176   -0.7583 C.3       1 ACP         0.4064
     22 N9         -2.1040   -1.3333   -0.7704 N.pl3     1 ACP        -0.5630
     23 C8         -2.6611   -0.5376    0.1306 C.ar      1 ACP         0.2808
     24 N7         -3.9008   -0.1619   -0.1787 N.pl3     1 ACP        -0.5040
     25 C5         -4.1527   -0.7619   -1.3633 C.ar      1 ACP        -0.2807
     26 C6         -5.2376   -0.7682   -2.1896 C.ar      1 ACP         0.7712
     27 N6         -6.3842   -0.0312   -1.8286 N.pl3     1 ACP        -0.9461
     28 N1         -5.2214   -1.4713   -3.3433 N.ar      1 ACP        -0.7457
     29 C2         -4.0737   -2.1541   -3.6127 C.ar      1 ACP         0.7201
     30 N3         -2.9476   -2.2143   -2.8660 N.ar      1 ACP        -0.6849
     31 C4         -3.0383   -1.4958   -1.7429 C.ar      1 ACP         0.6369
     32 HOG2       -2.8799   -6.1593    3.1401 H         1 ACP         0.4781
     33 HOG3       -4.0838   -9.4313    1.5475 H         1 ACP         0.4781
     34 H3B1       -1.4724   -8.8531    4.1184 H         1 ACP         0.1236
     35 H3B2       -0.4418   -9.3034    2.7634 H         1 ACP         0.1236
     36 HOA2       -2.0810   -3.0066    5.2194 H         1 ACP         0.4716
     37 H5'1       -0.9362   -4.9413    1.9386 H         1 ACP         0.0529
     38 H5'2       -1.7563   -3.4348    2.4248 H         1 ACP         0.0529
     39 H4'         0.8886   -3.6448    0.8780 H         1 ACP         0.1213
     40 H3'        -0.7374   -1.2358    1.9870 H         1 ACP         0.0524
     41 HO3'        1.1626   -1.9325    3.0084 H         1 ACP         0.4707
     42 H2'        -0.0384   -0.0310    0.0096 H         1 ACP         0.0774
     43 HO2'        2.1463   -0.7958    0.0370 H         1 ACP         0.4561
     44 H1'        -0.4769   -2.1002   -1.8093 H         1 ACP         0.1559
     45 H8         -2.1661   -0.2178    1.0311 H         1 ACP         0.2754
     46 HN61       -6.4010    0.4463   -0.9500 H         1 ACP         0.4584
     47 HN62       -7.1957   -0.0744   -2.4116 H         1 ACP         0.4584
     48 H2         -4.0645   -2.7171   -4.5389 H         1 ACP         0.0892
     49 H49        -4.5050    0.4395    0.3640 H         1 ACP         0.5039
@<TRIPOS>BOND
     1    1    2 2
     2    1    3 1
     3    1    4 1
     4    1    8 1
     5    3   32 1
     6    4   33 1
     7    5    6 2
     8    5    7 1
     9    5    8 1
    10    5   12 1
    11    8   34 1
    12    8   35 1
    13    9   10 2
    14    9   11 1
    15    9   12 1
    16    9   13 1
    17   11   36 1
    18   13   14 1
    19   14   15 1
    20   14   37 1
    21   14   38 1
    22   15   16 1
    23   15   17 1
    24   15   39 1
    25   16   21 1
    26   17   18 1
    27   17   19 1
    28   17   40 1
    29   18   41 1
    30   19   20 1
    31   19   21 1
    32   19   42 1
    33   20   43 1
    34   21   22 1
    35   21   44 1
    36   22   23 ar
    37   22   31 ar
    38   23   24 ar
    39   23   45 1
    40   24   25 ar
    41   24   49 1
    42   25   26 ar
    43   25   31 ar
    44   26   27 1
    45   26   28 ar
    46   27   46 1
    47   27   47 1
    48   28   29 ar
    49   29   30 ar
    50   29   48 1
    51   30   31 ar
@<TRIPOS>SUBSTRUCTURE
     1 ACP         1 GROUP 0 A     ****
@<TRIPOS>MOLECULE
[[5-(6-amino-7,8-dihydropurin-8-ylium-9-yl)-3,4-dihydroxy-tetrahydrofuran-2-yl]methoxy-hydroxy-phosphoryl]oxy-(phosphonomethyl)phosphinate
   49    51     1     0     0
SMALL
USER_CHARGES

@<TRIPOS>ATOM
      1 PG         -0.3431   -6.4929    6.3665 P.3       1 ACP         1.6362
      2 O1G        -0.2146   -7.9284    5.9538 O.2       1 ACP        -0.8691
      3 O2G         0.3983   -6.0968    7.7462 O.3       1 ACP        -0.8016
      4 O3G         0.2235   -5.4135    5.3064 O.3       1 ACP        -0.8016
      5 PB         -3.3285   -5.9943    5.3074 P.3       1 ACP         1.4874
      6 O1B        -4.6115   -5.4649    5.9050 O.co2     1 ACP        -0.8240
      7 O2B        -3.2452   -7.3539    4.6531 O.co2     1 ACP        -0.8240
      8 C3B        -2.0444   -5.9468    6.6379 C.3       1 ACP        -0.6510
      9 PA         -3.2824   -4.1691    2.9924 P.3       1 ACP         1.7966
     10 O1A        -4.5601   -3.4114    3.2096 O.2       1 ACP        -0.8436
     11 O2A        -3.4011   -5.3907    1.9384 O.3       1 ACP        -0.8190
     12 O3A        -2.6815   -4.8688    4.3210 O.3       1 ACP        -0.7947
     13 O5'        -2.0397   -3.2817    2.4572 O.3       1 ACP        -0.5846
     14 C5'        -0.7840   -3.8935    2.2172 C.3       1 ACP         0.2005
     15 C4'        -0.0724   -3.1466    1.1027 C.3       1 ACP         0.0711
     16 O4'        -0.8674   -3.1929   -0.0945 O.3       1 ACP        -0.4064
     17 C3'         0.1338   -1.6715    1.4027 C.3       1 ACP         0.0975
     18 O3'         1.2893   -1.4445    2.1808 O.3       1 ACP        -0.5957
     19 C2'         0.2158   -1.0724    0.0128 C.3       1 ACP         0.1195
     20 O2'         1.5141   -1.2448   -0.5513 O.3       1 ACP        -0.5845
     21 C1'        -0.7897   -1.9176   -0.7583 C.3       1 ACP         0.4064
     22 N9         -2.1040   -1.3333   -0.7704 N.pl3     1 ACP        -0.5630
     23 C8         -2.6611   -0.5376    0.1306 C.ar      1 ACP         0.2808
     24 N7         -3.9008   -0.1619   -0.1787 N.pl3     1 ACP        -0.5040
     25 C5         -4.1527   -0.7619   -1.3633 C.ar      1 ACP        -0.2807
     26 C6         -5.2376   -0.7682   -2.1896 C.ar      1 ACP         0.7712
     27 N6         -6.3842   -0.0312   -1.8286 N.pl3     1 ACP        -0.9461
     28 N1         -5.2214   -1.4713   -3.3433 N.ar      1 ACP        -0.7457
     29 C2         -4.0737   -2.1541   -3.6127 C.ar      1 ACP         0.7201
     30 N3         -2.9476   -2.2143   -2.8660 N.ar      1 ACP        -0.6849
     31 C4         -3.0383   -1.4958   -1.7429 C.ar      1 ACP         0.6369
     32 HOG2        1.3687   -6.2210    7.8170 H         1 ACP         0.4781
     33 HOG3        0.1658   -4.4586    5.5235 H         1 ACP         0.4781
     34 H3B1       -2.4452   -6.5440    7.4648 H         1 ACP         0.1236
     35 H3B2       -2.0066   -4.9077    6.9842 H         1 ACP         0.1236
     36 HOA2       -3.6722   -5.1964    1.0159 H         1 ACP         0.4716
     37 H5'1       -0.1919   -3.8613    3.1376 H         1 ACP         0.0529
     38 H5'2       -0.9466   -4.9385    1.9341 H         1 ACP         0.0529
     39 H4'         0.8886   -3.6448    0.8780 H         1 ACP         0.1213
     40 H3'        -0.7374   -1.2358    1.9870 H         1 ACP         0.0524
     41 HO3'        1.3408   -0.4870    2.3219 H         1 ACP         0.4707
     42 H2'        -0.0384   -0.0310    0.0096 H         1 ACP         0.0774
     43 HO2'        2.1463   -0.7958    0.0370 H         1 ACP         0.4561
     44 H1'        -0.4769   -2.1002   -1.8093 H         1 ACP         0.1559
     45 H8         -2.1661   -0.2178    1.0311 H         1 ACP         0.2754
     46 HN61       -6.4010    0.4463   -0.9500 H         1 ACP         0.4584
     47 HN62       -7.1957   -0.0744   -2.4116 H         1 ACP         0.4584
     48 H2         -4.0645   -2.7171   -4.5389 H         1 ACP         0.0892
     49 H49        -4.5050    0.4395    0.3640 H         1 ACP         0.5039
@<TRIPOS>BOND
     1    1    2 2
     2    1    3 1
     3    1    4 1
     4    1    8 1
     5    3   32 1
     6    4   33 1
     7    5    6 2
     8    5    7 1
     9    5    8 1
    10    5   12 1
    11    8   34 1
    12    8   35 1
    13    9   10 2
    14    9   11 1
    15    9   12 1
    16    9   13 1
    17   11   36 1
    18   13   14 1
    19   14   15 1
    20   14   37 1
    21   14   38 1
    22   15   16 1
    23   15   17 1
    24   15   39 1
    25   16   21 1
    26   17   18 1
    27   17   19 1
    28   17   40 1
    29   18   41 1
    30   19   20 1
    31   19   21 1
    32   19   42 1
    33   20   43 1
    34   21   22 1
    35   21   44 1
    36   22   23 ar
    37   22   31 ar
    38   23   24 ar
    39   23   45 1
    40   24   25 ar
    41   24   49 1
    42   25   26 ar
    43   25   31 ar
    44   26   27 1
    45   26   28 ar
    46   27   46 1
    47   27   47 1
    48   28   29 ar
    49   29   30 ar
    50   29   48 1
    51   30   31 ar
@<TRIPOS>SUBSTRUCTURE
     1 ACP         1 GROUP 0 A     ****
@<TRIPOS>MOLECULE
[[5-(6-amino-7,8-dihydropurin-8-ylium-9-yl)-3,4-dihydroxy-tetrahydrofuran-2-yl]methoxy-hydroxy-phosphoryl]oxy-(phosphonomethyl)phosphinate
   49    51     1     0     0
SMALL
USER_CHARGES

@<TRIPOS>ATOM
      1 PG         -3.9561   -6.9134    3.0901 P.3       1 ACP         1.6362
      2 O1G        -4.3226   -5.4629    3.1847 O.2       1 ACP        -0.8691
      3 O2G        -5.1936   -7.9496    3.1622 O.3       1 ACP        -0.8016
      4 O3G        -3.1763   -7.3450    1.7427 O.3       1 ACP        -0.8016
      5 PB         -1.1734   -6.7705    4.6773 P.3       1 ACP         1.4874
      6 O1B        -0.3809   -6.9906    3.4096 O.co2     1 ACP        -0.8240
      7 O2B        -0.6918   -7.2591    6.0237 O.co2     1 ACP        -0.8240
      8 C3B        -2.8555   -7.4893    4.4029 C.3       1 ACP        -0.6510
      9 PA         -0.6978   -3.8657    4.8460 P.3       1 ACP         1.7966
     10 O1A         0.2441   -3.8050    6.0134 O.2       1 ACP        -0.8436
     11 O2A        -1.7814   -2.6653    4.7989 O.3       1 ACP        -0.8190
     12 O3A        -1.6064   -5.2022    4.7840 O.3       1 ACP        -0.7947
     13 O5'         0.0089   -3.8407    3.3906 O.3       1 ACP        -0.5846
     14 C5'        -0.7840   -3.8935    2.2172 C.3       1 ACP         0.2005
     15 C4'        -0.0724   -3.1466    1.1027 C.3       1 ACP         0.0711
     16 O4'        -0.8674   -3.1929   -0.0945 O.3       1 ACP        -0.4064
     17 C3'         0.1338   -1.6715    1.4027 C.3       1 ACP         0.0975
     18 O3'         1.2893   -1.4445    2.1808 O.3       1 ACP        -0.5957
     19 C2'         0.2158   -1.0724    0.0128 C.3       1 ACP         0.1195
     20 O2'         1.5141   -1.2448   -0.5513 O.3       1 ACP        -0.5845
     21 C1'        -0.7897   -1.9176   -0.7583 C.3       1 ACP         0.4064
     22 N9         -2.1040   -1.3333   -0.7704 N.pl3     1 ACP        -0.5630
     23 C8         -2.6611   -0.5376    0.1306 C.ar      1 ACP         0.2808
     24 N7         -3.9008   -0.1619   -0.1787 N.pl3     1 ACP        -0.5040
     25 C5         -4.1527   -0.7619   -1.3633 C.ar      1 ACP        -0.2807
     26 C6         -5.2376   -0.7682   -2.1896 C.ar      1 ACP         0.7712
     27 N6         -6.3842   -0.0312   -1.8286 N.pl3     1 ACP        -0.9461
     28 N1         -5.2214   -1.4713   -3.3433 N.ar      1 ACP        -0.7457
     29 C2         -4.0737   -2.1541   -3.6127 C.ar      1 ACP         0.7201
     30 N3         -2.9476   -2.2143   -2.8660 N.ar      1 ACP        -0.6849
     31 C4         -3.0383   -1.4958   -1.7429 C.ar      1 ACP         0.6369
     32 HOG2       -5.8995   -7.8950    2.4833 H         1 ACP         0.4781
     33 HOG3       -2.9114   -8.2823    1.6262 H         1 ACP         0.4781
     34 H3B1       -3.3936   -7.3668    5.3497 H         1 ACP         0.1236
     35 H3B2       -2.7044   -8.5653    4.2591 H         1 ACP         0.1236
     36 HOA2       -1.4616   -1.7397    4.7438 H         1 ACP         0.4716
     37 H5'1       -0.9362   -4.9413    1.9386 H         1 ACP         0.0529
     38 H5'2       -1.7563   -3.4348    2.4248 H         1 ACP         0.0529
     39 H4'         0.8886   -3.6448    0.8780 H         1 ACP         0.1213
     40 H3'        -0.7374   -1.2358    1.9870 H         1 ACP         0.0524
     41 HO3'        1.3408   -0.4870    2.3219 H         1 ACP         0.4707
     42 H2'        -0.0384   -0.0310    0.0096 H         1 ACP         0.0774
     43 HO2'        2.1463   -0.7958    0.0370 H         1 ACP         0.4561
     44 H1'        -0.4769   -2.1002   -1.8093 H         1 ACP         0.1559
     45 H8         -2.1661   -0.2178    1.0311 H         1 ACP         0.2754
     46 HN61       -6.4010    0.4463   -0.9500 H         1 ACP         0.4584
     47 HN62       -7.1957   -0.0744   -2.4116 H         1 ACP         0.4584
     48 H2         -4.0645   -2.7171   -4.5389 H         1 ACP         0.0892
     49 H49        -4.5050    0.4395    0.3640 H         1 ACP         0.5039
@<TRIPOS>BOND
     1    1    2 2
     2    1    3 1
     3    1    4 1
     4    1    8 1
     5    3   32 1
     6    4   33 1
     7    5    6 2
     8    5    7 1
     9    5    8 1
    10    5   12 1
    11    8   34 1
    12    8   35 1
    13    9   10 2
    14    9   11 1
    15    9   12 1
    16    9   13 1
    17   11   36 1
    18   13   14 1
    19   14   15 1
    20   14   37 1
    21   14   38 1
    22   15   16 1
    23   15   17 1
    24   15   39 1
    25   16   21 1
    26   17   18 1
    27   17   19 1
    28   17   40 1
    29   18   41 1
    30   19   20 1
    31   19   21 1
    32   19   42 1
    33   20   43 1
    34   21   22 1
    35   21   44 1
    36   22   23 ar
    37   22   31 ar
    38   23   24 ar
    39   23   45 1
    40   24   25 ar
    41   24   49 1
    42   25   26 ar
    43   25   31 ar
    44   26   27 1
    45   26   28 ar
    46   27   46 1
    47   27   47 1
    48   28   29 ar
    49   29   30 ar
    50   29   48 1
    51   30   31 ar
@<TRIPOS>SUBSTRUCTURE
     1 ACP         1 GROUP 0 A     ****
@<TRIPOS>MOLECULE
[[5-(6-amino-7,8-dihydropurin-8-ylium-9-yl)-3,4-dihydroxy-tetrahydrofuran-2-yl]methoxy-hydroxy-phosphoryl]oxy-(phosphonomethyl)phosphinate
   49    51     1     0     0
SMALL
USER_CHARGES

@<TRIPOS>ATOM
      1 PG         -1.3618    2.8381   -4.2077 P.3       1 ACP         1.6362
      2 O1G        -0.4274    2.9241   -3.0386 O.2       1 ACP        -0.8691
      3 O2G        -2.9246    3.0659   -3.8672 O.3       1 ACP        -0.8016
      4 O3G        -1.0757    3.8872   -5.4024 O.3       1 ACP        -0.8016
      5 PB          0.1741    0.5396   -5.8327 P.3       1 ACP         1.4874
      6 O1B         0.6266    1.5194   -6.8905 O.co2     1 ACP        -0.8240
      7 O2B        -0.1104   -0.9108   -6.1468 O.co2     1 ACP        -0.8240
      8 C3B        -1.3497    1.2408   -5.0532 C.3       1 ACP        -0.6510
      9 PA          2.7557    0.3904   -4.4164 P.3       1 ACP         1.7966
     10 O1A         3.5959    1.2926   -5.2730 O.2       1 ACP        -0.8436
     11 O2A         2.9225   -1.1855   -4.7419 O.3       1 ACP        -0.8190
     12 O3A         1.1623    0.6387   -4.5396 O.3       1 ACP        -0.7947
     13 O5'         3.0190    0.5130   -2.8246 O.3       1 ACP        -0.5846
     14 C5'         2.2816   -0.2918   -1.9206 C.3       1 ACP         0.2005
     15 C4'         2.7248    0.0226   -0.4980 C.3       1 ACP         0.0711
     16 O4'         2.4697    1.4219   -0.2462 O.3       1 ACP        -0.4064
     17 C3'         1.9404   -0.7419    0.5596 C.3       1 ACP         0.0975
     18 O3'         2.7418   -0.8086    1.7389 O.3       1 ACP        -0.5957
     19 C2'         0.7477    0.1630    0.7858 C.3       1 ACP         0.1195
     20 O2'         0.1373   -0.0577    2.0407 O.3       1 ACP        -0.5845
     21 C1'         1.3733    1.5427    0.6747 C.3       1 ACP         0.4064
     22 N9          0.4520    2.5240    0.1767 N.pl3     1 ACP        -0.5630
     23 C8         -0.8252    2.3702   -0.1405 C.ar      1 ACP         0.2808
     24 N7         -1.4086    3.4861   -0.5739 N.pl3     1 ACP        -0.5040
     25 C5         -0.4324    4.4197   -0.5299 C.ar      1 ACP        -0.2807
     26 C6         -0.4006    5.7465   -0.8438 C.ar      1 ACP         0.7712
     27 N6         -1.5714    6.3708   -1.3211 N.pl3     1 ACP        -0.9461
     28 N1          0.7371    6.4615   -0.7020 N.ar      1 ACP        -0.7457
     29 C2          1.8196    5.7785   -0.2355 C.ar      1 ACP         0.7201
     30 N3          1.8948    4.4713    0.1036 N.ar      1 ACP        -0.6849
     31 C4          0.7337    3.8311   -0.0629 C.ar      1 ACP         0.6369
     32 HOG2       -3.5811    3.0207   -4.5946 H         1 ACP         0.4781
     33 HOG3       -1.1109    4.8484   -5.2096 H         1 ACP         0.4781
     34 H3B1       -1.6896    0.4917   -4.3291 H         1 ACP         0.1236
     35 H3B2       -2.1038    1.2816   -5.8474 H         1 ACP         0.1236
     36 HOA2        3.8079   -1.5976   -4.6497 H         1 ACP         0.4716
     37 H5'1        1.2149   -0.0786   -2.0446 H         1 ACP         0.0529
     38 H5'2        2.4640   -1.3459   -2.1539 H         1 ACP         0.0529
     39 H4'         3.8049   -0.1388   -0.4009 H         1 ACP         0.1213
     40 H3'         1.6783   -1.7629    0.2715 H         1 ACP         0.0524
     41 HO3'        2.2232   -1.2979    2.3953 H         1 ACP         0.4707
     42 H2'        -0.0011    0.0027    0.0003 H         1 ACP         0.0774
     43 HO2'       -0.1563   -0.9855    2.0596 H         1 ACP         0.4561
     44 H1'         1.7826    1.9024    1.6451 H         1 ACP         0.1559
     45 H8         -1.3516    1.4351   -0.0582 H         1 ACP         0.2754
     46 HN61       -2.3936    5.8204   -1.4664 H         1 ACP         0.4584
     47 HN62       -1.5348    7.3319   -1.5955 H         1 ACP         0.4584
     48 H2          2.7305    6.3553   -0.1232 H         1 ACP         0.0892
     49 H49        -2.3700    3.5931   -0.8665 H         1 ACP         0.5039
@<TRIPOS>BOND
     1    1    2 2
     2    1    3 1
     3    1    4 1
     4    1    8 1
     5    3   32 1
     6    4   33 1
     7    5    6 2
     8    5    7 1
     9    5    8 1
    10    5   12 1
    11    8   34 1
    12    8   35 1
    13    9   10 2
    14    9   11 1
    15    9   12 1
    16    9   13 1
    17   11   36 1
    18   13   14 1
    19   14   15 1
    20   14   37 1
    21   14   38 1
    22   15   16 1
    23   15   17 1
    24   15   39 1
    25   16   21 1
    26   17   18 1
    27   17   19 1
    28   17   40 1
    29   18   41 1
    30   19   20 1
    31   19   21 1
    32   19   42 1
    33   20   43 1
    34   21   22 1
    35   21   44 1
    36   22   23 ar
    37   22   31 ar
    38   23   24 ar
    39   23   45 1
    40   24   25 ar
    41   24   49 1
    42   25   26 ar
    43   25   31 ar
    44   26   27 1
    45   26   28 ar
    46   27   46 1
    47   27   47 1
    48   28   29 ar
    49   29   30 ar
    50   29   48 1
    51   30   31 ar
@<TRIPOS>SUBSTRUCTURE
     1 ACP         1 GROUP 0 A     ****
@<TRIPOS>MOLECULE
[[5-(6-amino-7,8-dihydropurin-8-ylium-9-yl)-3,4-dihydroxy-tetrahydrofuran-2-yl]methoxy-hydroxy-phosphoryl]oxy-(phosphonomethyl)phosphinate
   49    51     1     0     0
SMALL
USER_CHARGES

@<TRIPOS>ATOM
      1 PG          3.0062    1.1845   -7.6793 P.3       1 ACP         1.6362
      2 O1G         1.7914    0.3063   -7.6979 O.2       1 ACP        -0.8691
      3 O2G         4.2393    0.6855   -8.5961 O.3       1 ACP        -0.8016
      4 O3G         2.7673    2.7084   -8.1592 O.3       1 ACP        -0.8016
      5 PB          4.4035   -0.0496   -5.0702 P.3       1 ACP         1.4874
      6 O1B         4.9481    0.5035   -3.7736 O.co2     1 ACP        -0.8240
      7 O2B         5.2451   -0.8860   -6.0060 O.co2     1 ACP        -0.8240
      8 C3B         3.7560    1.3817   -6.0467 C.3       1 ACP        -0.6510
      9 PA          2.6334   -2.0591   -3.8369 P.3       1 ACP         1.7966
     10 O1A         3.3655   -3.3238   -4.1808 O.2       1 ACP        -0.8436
     11 O2A         1.0224   -2.1730   -3.9317 O.3       1 ACP        -0.8190
     12 O3A         2.9834   -0.7995   -4.7890 O.3       1 ACP        -0.7947
     13 O5'         2.9195   -1.4814   -2.3528 O.3       1 ACP        -0.5846
     14 C5'         2.2816   -0.2918   -1.9206 C.3       1 ACP         0.2005
     15 C4'         2.7248    0.0226   -0.4980 C.3       1 ACP         0.0711
     16 O4'         2.4697    1.4219   -0.2462 O.3       1 ACP        -0.4064
     17 C3'         1.9404   -0.7419    0.5596 C.3       1 ACP         0.0975
     18 O3'         2.7418   -0.8086    1.7389 O.3       1 ACP        -0.5957
     19 C2'         0.7477    0.1630    0.7858 C.3       1 ACP         0.1195
     20 O2'         0.1373   -0.0577    2.0407 O.3       1 ACP        -0.5845
     21 C1'         1.3733    1.5427    0.6747 C.3       1 ACP         0.4064
     22 N9          0.4520    2.5240    0.1767 N.pl3     1 ACP        -0.5630
     23 C8          0.0623    3.6542    0.7479 C.ar      1 ACP         0.2808
     24 N7         -0.8074    4.3516    0.0193 N.pl3     1 ACP        -0.5040
     25 C5         -0.9855    3.6123   -1.0979 C.ar      1 ACP        -0.2807
     26 C6         -1.7474    3.7860   -2.2156 C.ar      1 ACP         0.7712
     27 N6         -2.5511    4.9389   -2.3303 N.pl3     1 ACP        -0.9461
     28 N1         -1.7375    2.8675   -3.2064 N.ar      1 ACP        -0.7457
     29 C2         -0.9330    1.7853   -3.0121 C.ar      1 ACP         0.7201
     30 N3         -0.1423    1.5179   -1.9478 N.ar      1 ACP        -0.6849
     31 C4         -0.2044    2.4690   -1.0113 C.ar      1 ACP         0.6369
     32 HOG2        4.6437   -0.1894   -8.4137 H         1 ACP         0.4781
     33 HOG3        2.4348    2.8743   -9.0671 H         1 ACP         0.4781
     34 H3B1        4.5981    2.0736   -6.1616 H         1 ACP         0.1236
     35 H3B2        3.0209    1.8784   -5.4033 H         1 ACP         0.1236
     36 HOA2        0.5592   -2.8268   -3.3659 H         1 ACP         0.4716
     37 H5'1        2.5577    0.5244   -2.5962 H         1 ACP         0.0529
     38 H5'2        1.1970   -0.4361   -1.9603 H         1 ACP         0.0529
     39 H4'         3.8049   -0.1388   -0.4009 H         1 ACP         0.1213
     40 H3'         1.6783   -1.7629    0.2715 H         1 ACP         0.0524
     41 HO3'        2.2232   -1.2979    2.3953 H         1 ACP         0.4707
     42 H2'        -0.0011    0.0027    0.0003 H         1 ACP         0.0774
     43 HO2'       -0.6141    0.5574    2.1082 H         1 ACP         0.4561
     44 H1'         1.7826    1.9024    1.6451 H         1 ACP         0.1559
     45 H8          0.4111    3.9873    1.7100 H         1 ACP         0.2754
     46 HN61       -2.5859    5.5874   -1.5698 H         1 ACP         0.4584
     47 HN62       -3.1449    5.0423   -3.1284 H         1 ACP         0.4584
     48 H2         -0.9279    1.0504   -3.8088 H         1 ACP         0.0892
     49 H49        -1.2303    5.2364    0.2633 H         1 ACP         0.5039
@<TRIPOS>BOND
     1    1    2 2
     2    1    3 1
     3    1    4 1
     4    1    8 1
     5    3   32 1
     6    4   33 1
     7    5    6 2
     8    5    7 1
     9    5    8 1
    10    5   12 1
    11    8   34 1
    12    8   35 1
    13    9   10 2
    14    9   11 1
    15    9   12 1
    16    9   13 1
    17   11   36 1
    18   13   14 1
    19   14   15 1
    20   14   37 1
    21   14   38 1
    22   15   16 1
    23   15   17 1
    24   15   39 1
    25   16   21 1
    26   17   18 1
    27   17   19 1
    28   17   40 1
    29   18   41 1
    30   19   20 1
    31   19   21 1
    32   19   42 1
    33   20   43 1
    34   21   22 1
    35   21   44 1
    36   22   23 ar
    37   22   31 ar
    38   23   24 ar
    39   23   45 1
    40   24   25 ar
    41   24   49 1
    42   25   26 ar
    43   25   31 ar
    44   26   27 1
    45   26   28 ar
    46   27   46 1
    47   27   47 1
    48   28   29 ar
    49   29   30 ar
    50   29   48 1
    51   30   31 ar
@<TRIPOS>SUBSTRUCTURE
     1 ACP         1 GROUP 0 A     ****
@<TRIPOS>MOLECULE
[[5-(6-amino-7,8-dihydropurin-8-ylium-9-yl)-3,4-dihydroxy-tetrahydrofuran-2-yl]methoxy-hydroxy-phosphoryl]oxy-(phosphonomethyl)phosphinate
   49    51     1     0     0
SMALL
USER_CHARGES

@<TRIPOS>ATOM
      1 PG         -3.7830   -7.5947    3.4317 P.3       1 ACP         1.6362
      2 O1G        -5.1764   -7.0441    3.3783 O.2       1 ACP        -0.8691
      3 O2G        -3.6450   -9.1708    3.1046 O.3       1 ACP        -0.8016
      4 O3G        -2.7253   -6.9030    2.4255 O.3       1 ACP        -0.8016
      5 PB         -2.6891   -5.7945    5.8495 P.3       1 ACP         1.4874
      6 O1B        -2.0044   -6.0613    7.1700 O.co2     1 ACP        -0.8240
      7 O2B        -3.9785   -5.0124    5.7540 O.co2     1 ACP        -0.8240
      8 C3B        -2.9813   -7.4336    5.0435 C.3       1 ACP        -0.6510
      9 PA         -0.6978   -3.8657    4.8460 P.3       1 ACP         1.7966
     10 O1A         0.2441   -3.8050    6.0134 O.2       1 ACP        -0.8436
     11 O2A        -1.7814   -2.6653    4.7989 O.3       1 ACP        -0.8190
     12 O3A        -1.6064   -5.2022    4.7840 O.3       1 ACP        -0.7947
     13 O5'         0.0089   -3.8407    3.3906 O.3       1 ACP        -0.5846
     14 C5'        -0.7840   -3.8935    2.2172 C.3       1 ACP         0.2005
     15 C4'        -0.0724   -3.1466    1.1027 C.3       1 ACP         0.0711
     16 O4'        -0.8674   -3.1929   -0.0945 O.3       1 ACP        -0.4064
     17 C3'         0.1338   -1.6715    1.4027 C.3       1 ACP         0.0975
     18 O3'         1.2893   -1.4445    2.1808 O.3       1 ACP        -0.5957
     19 C2'         0.2158   -1.0724    0.0128 C.3       1 ACP         0.1195
     20 O2'         1.5141   -1.2448   -0.5513 O.3       1 ACP        -0.5845
     21 C1'        -0.7897   -1.9176   -0.7583 C.3       1 ACP         0.4064
     22 N9         -2.1040   -1.3333   -0.7704 N.pl3     1 ACP        -0.5630
     23 C8         -2.6611   -0.5376    0.1306 C.ar      1 ACP         0.2808
     24 N7         -3.9008   -0.1619   -0.1787 N.pl3     1 ACP        -0.5040
     25 C5         -4.1527   -0.7619   -1.3633 C.ar      1 ACP        -0.2807
     26 C6         -5.2376   -0.7682   -2.1896 C.ar      1 ACP         0.7712
     27 N6         -6.3842   -0.0312   -1.8286 N.pl3     1 ACP        -0.9461
     28 N1         -5.2214   -1.4713   -3.3433 N.ar      1 ACP        -0.7457
     29 C2         -4.0737   -2.1541   -3.6127 C.ar      1 ACP         0.7201
     30 N3         -2.9476   -2.2143   -2.8660 N.ar      1 ACP        -0.6849
     31 C4         -3.0383   -1.4958   -1.7429 C.ar      1 ACP         0.6369
     32 HOG2       -3.9388   -9.5022    2.2294 H         1 ACP         0.4781
     33 HOG3       -1.7980   -7.2229    2.4172 H         1 ACP         0.4781
     34 H3B1       -3.5732   -8.0186    5.7564 H         1 ACP         0.1236
     35 H3B2       -1.9993   -7.9151    4.9736 H         1 ACP         0.1236
     36 HOA2       -1.4616   -1.7397    4.7438 H         1 ACP         0.4716
     37 H5'1       -0.9362   -4.9413    1.9386 H         1 ACP         0.0529
     38 H5'2       -1.7563   -3.4348    2.4248 H         1 ACP         0.0529
     39 H4'         0.8886   -3.6448    0.8780 H         1 ACP         0.1213
     40 H3'        -0.7374   -1.2358    1.9870 H         1 ACP         0.0524
     41 HO3'        1.1626   -1.9325    3.0084 H         1 ACP         0.4707
     42 H2'        -0.0384   -0.0310    0.0096 H         1 ACP         0.0774
     43 HO2'        2.1463   -0.7958    0.0370 H         1 ACP         0.4561
     44 H1'        -0.4769   -2.1002   -1.8093 H         1 ACP         0.1559
     45 H8         -2.1661   -0.2178    1.0311 H         1 ACP         0.2754
     46 HN61       -6.4010    0.4463   -0.9500 H         1 ACP         0.4584
     47 HN62       -7.1957   -0.0744   -2.4116 H         1 ACP         0.4584
     48 H2         -4.0645   -2.7171   -4.5389 H         1 ACP         0.0892
     49 H49        -4.5050    0.4395    0.3640 H         1 ACP         0.5039
@<TRIPOS>BOND
     1    1    2 2
     2    1    3 1
     3    1    4 1
     4    1    8 1
     5    3   32 1
     6    4   33 1
     7    5    6 2
     8    5    7 1
     9    5    8 1
    10    5   12 1
    11    8   34 1
    12    8   35 1
    13    9   10 2
    14    9   11 1
    15    9   12 1
    16    9   13 1
    17   11   36 1
    18   13   14 1
    19   14   15 1
    20   14   37 1
    21   14   38 1
    22   15   16 1
    23   15   17 1
    24   15   39 1
    25   16   21 1
    26   17   18 1
    27   17   19 1
    28   17   40 1
    29   18   41 1
    30   19   20 1
    31   19   21 1
    32   19   42 1
    33   20   43 1
    34   21   22 1
    35   21   44 1
    36   22   23 ar
    37   22   31 ar
    38   23   24 ar
    39   23   45 1
    40   24   25 ar
    41   24   49 1
    42   25   26 ar
    43   25   31 ar
    44   26   27 1
    45   26   28 ar
    46   27   46 1
    47   27   47 1
    48   28   29 ar
    49   29   30 ar
    50   29   48 1
    51   30   31 ar
@<TRIPOS>SUBSTRUCTURE
     1 ACP         1 GROUP 0 A     ****
@<TRIPOS>MOLECULE
[[5-(6-amino-7,8-dihydropurin-8-ylium-9-yl)-3,4-dihydroxy-tetrahydrofuran-2-yl]methoxy-hydroxy-phosphoryl]oxy-(phosphonomethyl)phosphinate
   49    51     1     0     0
SMALL
USER_CHARGES

@<TRIPOS>ATOM
      1 PG         -4.0132   -3.6666    5.9171 P.3       1 ACP         1.6362
      2 O1G        -3.3502   -2.9116    4.8045 O.2       1 ACP        -0.8691
      3 O2G        -3.2848   -3.5674    7.3557 O.3       1 ACP        -0.8016
      4 O3G        -5.5387   -3.2386    6.2325 O.3       1 ACP        -0.8016
      5 PB         -2.6509   -6.5208    5.3872 P.3       1 ACP         1.4874
      6 O1B        -3.1482   -7.9334    5.1851 O.co2     1 ACP        -0.8240
      7 O2B        -1.6548   -6.1638    6.4660 O.co2     1 ACP        -0.8240
      8 C3B        -4.1368   -5.4477    5.6364 C.3       1 ACP        -0.6510
      9 PA         -1.0079   -6.4122    2.9416 P.3       1 ACP         1.7966
     10 O1A        -1.2140   -7.7993    2.4057 O.2       1 ACP        -0.8436
     11 O2A         0.3591   -6.2182    3.7848 O.3       1 ACP        -0.8190
     12 O3A        -2.1587   -5.9067    3.9593 O.3       1 ACP        -0.7947
     13 O5'        -0.9731   -5.2421    1.8246 O.3       1 ACP        -0.5846
     14 C5'        -0.7840   -3.8935    2.2172 C.3       1 ACP         0.2005
     15 C4'        -0.0724   -3.1466    1.1027 C.3       1 ACP         0.0711
     16 O4'        -0.8674   -3.1929   -0.0945 O.3       1 ACP        -0.4064
     17 C3'         0.1338   -1.6715    1.4027 C.3       1 ACP         0.0975
     18 O3'         1.2893   -1.4445    2.1808 O.3       1 ACP        -0.5957
     19 C2'         0.2158   -1.0724    0.0128 C.3       1 ACP         0.1195
     20 O2'         1.5141   -1.2448   -0.5513 O.3       1 ACP        -0.5845
     21 C1'        -0.7897   -1.9176   -0.7583 C.3       1 ACP         0.4064
     22 N9         -2.1040   -1.3333   -0.7704 N.pl3     1 ACP        -0.5630
     23 C8         -2.6611   -0.5376    0.1306 C.ar      1 ACP         0.2808
     24 N7         -3.9008   -0.1619   -0.1787 N.pl3     1 ACP        -0.5040
     25 C5         -4.1527   -0.7619   -1.3633 C.ar      1 ACP        -0.2807
     26 C6         -5.2376   -0.7682   -2.1896 C.ar      1 ACP         0.7712
     27 N6         -6.3842   -0.0312   -1.8286 N.pl3     1 ACP        -0.9461
     28 N1         -5.2214   -1.4713   -3.3433 N.ar      1 ACP        -0.7457
     29 C2         -4.0737   -2.1541   -3.6127 C.ar      1 ACP         0.7201
     30 N3         -2.9476   -2.2143   -2.8660 N.ar      1 ACP        -0.6849
     31 C4         -3.0383   -1.4958   -1.7429 C.ar      1 ACP         0.6369
     32 HOG2       -3.6754   -4.0421    8.1201 H         1 ACP         0.4781
     33 HOG3       -5.7273   -2.3140    6.5003 H         1 ACP         0.4781
     34 H3B1       -4.6740   -5.8712    6.4926 H         1 ACP         0.1236
     35 H3B2       -4.7706   -5.6002    4.7554 H         1 ACP         0.1236
     36 HOA2        1.2178   -6.3858    3.3411 H         1 ACP         0.4716
     37 H5'1       -1.7611   -3.4417    2.4168 H         1 ACP         0.0529
     38 H5'2       -0.1868   -3.8712    3.1345 H         1 ACP         0.0529
     39 H4'         0.8886   -3.6448    0.8780 H         1 ACP         0.1213
     40 H3'        -0.7374   -1.2358    1.9870 H         1 ACP         0.0524
     41 HO3'        1.3408   -0.4870    2.3219 H         1 ACP         0.4707
     42 H2'        -0.0384   -0.0310    0.0096 H         1 ACP         0.0774
     43 HO2'        2.1463   -0.7958    0.0370 H         1 ACP         0.4561
     44 H1'        -0.4769   -2.1002   -1.8093 H         1 ACP         0.1559
     45 H8         -2.1661   -0.2178    1.0311 H         1 ACP         0.2754
     46 HN61       -6.4010    0.4463   -0.9500 H         1 ACP         0.4584
     47 HN62       -7.1957   -0.0744   -2.4116 H         1 ACP         0.4584
     48 H2         -4.0645   -2.7171   -4.5389 H         1 ACP         0.0892
     49 H49        -4.5050    0.4395    0.3640 H         1 ACP         0.5039
@<TRIPOS>BOND
     1    1    2 2
     2    1    3 1
     3    1    4 1
     4    1    8 1
     5    3   32 1
     6    4   33 1
     7    5    6 2
     8    5    7 1
     9    5    8 1
    10    5   12 1
    11    8   34 1
    12    8   35 1
    13    9   10 2
    14    9   11 1
    15    9   12 1
    16    9   13 1
    17   11   36 1
    18   13   14 1
    19   14   15 1
    20   14   37 1
    21   14   38 1
    22   15   16 1
    23   15   17 1
    24   15   39 1
    25   16   21 1
    26   17   18 1
    27   17   19 1
    28   17   40 1
    29   18   41 1
    30   19   20 1
    31   19   21 1
    32   19   42 1
    33   20   43 1
    34   21   22 1
    35   21   44 1
    36   22   23 ar
    37   22   31 ar
    38   23   24 ar
    39   23   45 1
    40   24   25 ar
    41   24   49 1
    42   25   26 ar
    43   25   31 ar
    44   26   27 1
    45   26   28 ar
    46   27   46 1
    47   27   47 1
    48   28   29 ar
    49   29   30 ar
    50   29   48 1
    51   30   31 ar
@<TRIPOS>SUBSTRUCTURE
     1 ACP         1 GROUP 0 A     ****
@<TRIPOS>MOLECULE
[[5-(6-amino-7,8-dihydropurin-8-ylium-9-yl)-3,4-dihydroxy-tetrahydrofuran-2-yl]methoxy-hydroxy-phosphoryl]oxy-(phosphonomethyl)phosphinate
   49    51     1     0     0
SMALL
USER_CHARGES

@<TRIPOS>ATOM
      1 PG         -1.6346   -8.5625    4.6210 P.3       1 ACP         1.6362
      2 O1G        -0.6312   -7.9943    3.6630 O.2       1 ACP        -0.8691
      3 O2G        -2.4069   -9.8880    4.1144 O.3       1 ACP        -0.8016
      4 O3G        -1.0494   -8.9912    6.0644 O.3       1 ACP        -0.8016
      5 PB         -2.6891   -5.7945    5.8495 P.3       1 ACP         1.4874
      6 O1B        -2.0044   -6.0613    7.1700 O.co2     1 ACP        -0.8240
      7 O2B        -3.9785   -5.0124    5.7540 O.co2     1 ACP        -0.8240
      8 C3B        -2.9813   -7.4336    5.0435 C.3       1 ACP        -0.6510
      9 PA         -0.6978   -3.8657    4.8460 P.3       1 ACP         1.7966
     10 O1A         0.2441   -3.8050    6.0134 O.2       1 ACP        -0.8436
     11 O2A        -1.7814   -2.6653    4.7989 O.3       1 ACP        -0.8190
     12 O3A        -1.6064   -5.2022    4.7840 O.3       1 ACP        -0.7947
     13 O5'         0.0089   -3.8407    3.3906 O.3       1 ACP        -0.5846
     14 C5'        -0.7840   -3.8935    2.2172 C.3       1 ACP         0.2005
     15 C4'        -0.0724   -3.1466    1.1027 C.3       1 ACP         0.0711
     16 O4'        -0.8674   -3.1929   -0.0945 O.3       1 ACP        -0.4064
     17 C3'         0.1338   -1.6715    1.4027 C.3       1 ACP         0.0975
     18 O3'         1.2893   -1.4445    2.1808 O.3       1 ACP        -0.5957
     19 C2'         0.2158   -1.0724    0.0128 C.3       1 ACP         0.1195
     20 O2'         1.5141   -1.2448   -0.5513 O.3       1 ACP        -0.5845
     21 C1'        -0.7897   -1.9176   -0.7583 C.3       1 ACP         0.4064
     22 N9         -2.1040   -1.3333   -0.7704 N.pl3     1 ACP        -0.5630
     23 C8         -2.6611   -0.5376    0.1306 C.ar      1 ACP         0.2808
     24 N7         -3.9008   -0.1619   -0.1787 N.pl3     1 ACP        -0.5040
     25 C5         -4.1527   -0.7619   -1.3633 C.ar      1 ACP        -0.2807
     26 C6         -5.2376   -0.7682   -2.1896 C.ar      1 ACP         0.7712
     27 N6         -6.3842   -0.0312   -1.8286 N.pl3     1 ACP        -0.9461
     28 N1         -5.2214   -1.4713   -3.3433 N.ar      1 ACP        -0.7457
     29 C2         -4.0737   -2.1541   -3.6127 C.ar      1 ACP         0.7201
     30 N3         -2.9476   -2.2143   -2.8660 N.ar      1 ACP        -0.6849
     31 C4         -3.0383   -1.4958   -1.7429 C.ar      1 ACP         0.6369
     32 HOG2       -3.0748  -10.3026    4.7011 H         1 ACP         0.4781
     33 HOG3       -0.3464   -9.6739    6.1087 H         1 ACP         0.4781
     34 H3B1       -3.5246   -7.2205    4.1159 H         1 ACP         0.1236
     35 H3B2       -3.6720   -7.9744    5.7005 H         1 ACP         0.1236
     36 HOA2       -1.4616   -1.7397    4.7438 H         1 ACP         0.4716
     37 H5'1       -0.9362   -4.9413    1.9386 H         1 ACP         0.0529
     38 H5'2       -1.7563   -3.4348    2.4248 H         1 ACP         0.0529
     39 H4'         0.8886   -3.6448    0.8780 H         1 ACP         0.1213
     40 H3'        -0.7374   -1.2358    1.9870 H         1 ACP         0.0524
     41 HO3'        1.1626   -1.9325    3.0084 H         1 ACP         0.4707
     42 H2'        -0.0384   -0.0310    0.0096 H         1 ACP         0.0774
     43 HO2'        2.1463   -0.7958    0.0370 H         1 ACP         0.4561
     44 H1'        -0.4769   -2.1002   -1.8093 H         1 ACP         0.1559
     45 H8         -2.1661   -0.2178    1.0311 H         1 ACP         0.2754
     46 HN61       -6.4010    0.4463   -0.9500 H         1 ACP         0.4584
     47 HN62       -7.1957   -0.0744   -2.4116 H         1 ACP         0.4584
     48 H2         -4.0645   -2.7171   -4.5389 H         1 ACP         0.0892
     49 H49        -4.5050    0.4395    0.3640 H         1 ACP         0.5039
@<TRIPOS>BOND
     1    1    2 2
     2    1    3 1
     3    1    4 1
     4    1    8 1
     5    3   32 1
     6    4   33 1
     7    5    6 2
     8    5    7 1
     9    5    8 1
    10    5   12 1
    11    8   34 1
    12    8   35 1
    13    9   10 2
    14    9   11 1
    15    9   12 1
    16    9   13 1
    17   11   36 1
    18   13   14 1
    19   14   15 1
    20   14   37 1
    21   14   38 1
    22   15   16 1
    23   15   17 1
    24   15   39 1
    25   16   21 1
    26   17   18 1
    27   17   19 1
    28   17   40 1
    29   18   41 1
    30   19   20 1
    31   19   21 1
    32   19   42 1
    33   20   43 1
    34   21   22 1
    35   21   44 1
    36   22   23 ar
    37   22   31 ar
    38   23   24 ar
    39   23   45 1
    40   24   25 ar
    41   24   49 1
    42   25   26 ar
    43   25   31 ar
    44   26   27 1
    45   26   28 ar
    46   27   46 1
    47   27   47 1
    48   28   29 ar
    49   29   30 ar
    50   29   48 1
    51   30   31 ar
@<TRIPOS>SUBSTRUCTURE
     1 ACP         1 GROUP 0 A     ****
@<TRIPOS>MOLECULE
[[5-(6-amino-7,8-dihydropurin-8-ylium-9-yl)-3,4-dihydroxy-tetrahydrofuran-2-yl]methoxy-hydroxy-phosphoryl]oxy-(phosphonomethyl)phosphinate
   49    51     1     0     0
SMALL
USER_CHARGES

@<TRIPOS>ATOM
      1 PG          0.3181   -0.2934   -7.5785 P.3       1 ACP         1.6362
      2 O1G        -0.6055    0.7284   -8.1702 O.2       1 ACP        -0.8691
      3 O2G        -0.3847   -1.4070   -6.6424 O.3       1 ACP        -0.8016
      4 O3G         1.1587   -1.1684   -8.6451 O.3       1 ACP        -0.8016
      5 PB          2.8638   -0.6598   -5.6632 P.3       1 ACP         1.4874
      6 O1B         3.7582    0.2630   -4.8682 O.co2     1 ACP        -0.8240
      7 O2B         3.4097   -1.6201   -6.6944 O.co2     1 ACP        -0.8240
      8 C3B         1.6029    0.3957   -6.5104 C.3       1 ACP        -0.6510
      9 PA          2.1858   -2.4502   -3.4210 P.3       1 ACP         1.7966
     10 O1A         2.9584   -3.6795   -3.8027 O.2       1 ACP        -0.8436
     11 O2A         0.7319   -2.7483   -2.7769 O.3       1 ACP        -0.8190
     12 O3A         1.8605   -1.4518   -4.6510 O.3       1 ACP        -0.7947
     13 O5'         2.9195   -1.4814   -2.3528 O.3       1 ACP        -0.5846
     14 C5'         2.2816   -0.2918   -1.9206 C.3       1 ACP         0.2005
     15 C4'         2.7248    0.0226   -0.4980 C.3       1 ACP         0.0711
     16 O4'         2.4697    1.4219   -0.2462 O.3       1 ACP        -0.4064
     17 C3'         1.9404   -0.7419    0.5596 C.3       1 ACP         0.0975
     18 O3'         2.7418   -0.8086    1.7389 O.3       1 ACP        -0.5957
     19 C2'         0.7477    0.1630    0.7858 C.3       1 ACP         0.1195
     20 O2'         0.1373   -0.0577    2.0407 O.3       1 ACP        -0.5845
     21 C1'         1.3733    1.5427    0.6747 C.3       1 ACP         0.4064
     22 N9          0.4520    2.5240    0.1767 N.pl3     1 ACP        -0.5630
     23 C8         -0.6854    2.9365    0.7168 C.ar      1 ACP         0.2808
     24 N7         -1.3118    3.8692    0.0018 N.pl3     1 ACP        -0.5040
     25 C5         -0.5159    4.0659   -1.0727 C.ar      1 ACP        -0.2807
     26 C6         -0.6068    4.8856   -2.1589 C.ar      1 ACP         0.7712
     27 N6         -1.7186    5.7437   -2.2844 N.pl3     1 ACP        -0.9461
     28 N1          0.3541    4.8807   -3.1087 N.ar      1 ACP        -0.7457
     29 C2          1.3913    4.0207   -2.9071 C.ar      1 ACP         0.7201
     30 N3          1.5770    3.1707   -1.8715 N.ar      1 ACP        -0.6849
     31 C4          0.5883    3.2318   -0.9747 C.ar      1 ACP         0.6369
     32 HOG2        0.1722   -2.1005   -6.2288 H         1 ACP         0.4781
     33 HOG3        0.6733   -1.7161   -9.2983 H         1 ACP         0.4781
     34 H3B1        2.1685    1.1161   -7.1122 H         1 ACP         0.1236
     35 H3B2        1.1037    0.9647   -5.7179 H         1 ACP         0.1236
     36 HOA2        0.6780   -3.2767   -1.9523 H         1 ACP         0.4716
     37 H5'1        2.5577    0.5244   -2.5962 H         1 ACP         0.0529
     38 H5'2        1.1970   -0.4361   -1.9603 H         1 ACP         0.0529
     39 H4'         3.8049   -0.1388   -0.4009 H         1 ACP         0.1213
     40 H3'         1.6783   -1.7629    0.2715 H         1 ACP         0.0524
     41 HO3'        2.2232   -1.2979    2.3953 H         1 ACP         0.4707
     42 H2'        -0.0011    0.0027    0.0003 H         1 ACP         0.0774
     43 HO2'       -0.1563   -0.9855    2.0596 H         1 ACP         0.4561
     44 H1'         1.7826    1.9024    1.6451 H         1 ACP         0.1559
     45 H8         -1.0749    2.5601    1.6468 H         1 ACP         0.2754
     46 HN61       -2.4460    5.7038   -1.5992 H         1 ACP         0.4584
     47 HN62       -1.8079    6.3099   -3.1040 H         1 ACP         0.4584
     48 H2          2.1601    4.0194   -3.6712 H         1 ACP         0.0892
     49 H49        -2.1877    4.3195    0.2279 H         1 ACP         0.5039
@<TRIPOS>BOND
     1    1    2 2
     2    1    3 1
     3    1    4 1
     4    1    8 1
     5    3   32 1
     6    4   33 1
     7    5    6 2
     8    5    7 1
     9    5    8 1
    10    5   12 1
    11    8   34 1
    12    8   35 1
    13    9   10 2
    14    9   11 1
    15    9   12 1
    16    9   13 1
    17   11   36 1
    18   13   14 1
    19   14   15 1
    20   14   37 1
    21   14   38 1
    22   15   16 1
    23   15   17 1
    24   15   39 1
    25   16   21 1
    26   17   18 1
    27   17   19 1
    28   17   40 1
    29   18   41 1
    30   19   20 1
    31   19   21 1
    32   19   42 1
    33   20   43 1
    34   21   22 1
    35   21   44 1
    36   22   23 ar
    37   22   31 ar
    38   23   24 ar
    39   23   45 1
    40   24   25 ar
    41   24   49 1
    42   25   26 ar
    43   25   31 ar
    44   26   27 1
    45   26   28 ar
    46   27   46 1
    47   27   47 1
    48   28   29 ar
    49   29   30 ar
    50   29   48 1
    51   30   31 ar
@<TRIPOS>SUBSTRUCTURE
     1 ACP         1 GROUP 0 A     ****
@<TRIPOS>MOLECULE
[[5-(6-amino-7,8-dihydropurin-8-ylium-9-yl)-3,4-dihydroxy-tetrahydrofuran-2-yl]methoxy-hydroxy-phosphoryl]oxy-(phosphonomethyl)phosphinate
   49    51     1     0     0
SMALL
USER_CHARGES

@<TRIPOS>ATOM
      1 PG         -2.0958   -9.3276    4.3657 P.3       1 ACP         1.6362
      2 O1G        -1.3746  -10.1375    5.4007 O.2       1 ACP        -0.8691
      3 O2G        -3.0933  -10.1579    3.4037 O.3       1 ACP        -0.8016
      4 O3G        -3.0244   -8.1371    4.9403 O.3       1 ACP        -0.8016
      5 PB          0.2440   -7.2259    3.7400 P.3       1 ACP         1.4874
      6 O1B         0.9518   -6.7368    2.4977 O.co2     1 ACP        -0.8240
      7 O2B         0.9908   -7.8195    4.9119 O.co2     1 ACP        -0.8240
      8 C3B        -1.0099   -8.4741    3.2000 C.3       1 ACP        -0.6510
      9 PA         -0.5051   -4.5580    4.7469 P.3       1 ACP         1.7966
     10 O1A         0.4194   -4.4346    5.9232 O.2       1 ACP        -0.8436
     11 O2A        -1.9864   -3.9569    4.9955 O.3       1 ACP        -0.8190
     12 O3A        -0.7854   -6.0774    4.2686 O.3       1 ACP        -0.7947
     13 O5'         0.0089   -3.8407    3.3906 O.3       1 ACP        -0.5846
     14 C5'        -0.7840   -3.8935    2.2172 C.3       1 ACP         0.2005
     15 C4'        -0.0724   -3.1466    1.1027 C.3       1 ACP         0.0711
     16 O4'        -0.8674   -3.1929   -0.0945 O.3       1 ACP        -0.4064
     17 C3'         0.1338   -1.6715    1.4027 C.3       1 ACP         0.0975
     18 O3'         1.2893   -1.4445    2.1808 O.3       1 ACP        -0.5957
     19 C2'         0.2158   -1.0724    0.0128 C.3       1 ACP         0.1195
     20 O2'         1.5141   -1.2448   -0.5513 O.3       1 ACP        -0.5845
     21 C1'        -0.7897   -1.9176   -0.7583 C.3       1 ACP         0.4064
     22 N9         -2.1040   -1.3333   -0.7704 N.pl3     1 ACP        -0.5630
     23 C8         -2.6611   -0.5376    0.1306 C.ar      1 ACP         0.2808
     24 N7         -3.9008   -0.1619   -0.1787 N.pl3     1 ACP        -0.5040
     25 C5         -4.1527   -0.7619   -1.3633 C.ar      1 ACP        -0.2807
     26 C6         -5.2376   -0.7682   -2.1896 C.ar      1 ACP         0.7712
     27 N6         -6.3842   -0.0312   -1.8286 N.pl3     1 ACP        -0.9461
     28 N1         -5.2214   -1.4713   -3.3433 N.ar      1 ACP        -0.7457
     29 C2         -4.0737   -2.1541   -3.6127 C.ar      1 ACP         0.7201
     30 N3         -2.9476   -2.2143   -2.8660 N.ar      1 ACP        -0.6849
     31 C4         -3.0383   -1.4958   -1.7429 C.ar      1 ACP         0.6369
     32 HOG2       -3.8415  -10.6491    3.8051 H         1 ACP         0.4781
     33 HOG3       -3.5204   -7.5739    4.3085 H         1 ACP         0.4781
     34 H3B1       -0.4524   -9.2454    2.6568 H         1 ACP         0.1236
     35 H3B2       -1.6465   -7.9652    2.4673 H         1 ACP         0.1236
     36 HOA2       -2.0810   -3.0066    5.2194 H         1 ACP         0.4716
     37 H5'1       -0.9362   -4.9413    1.9386 H         1 ACP         0.0529
     38 H5'2       -1.7563   -3.4348    2.4248 H         1 ACP         0.0529
     39 H4'         0.8886   -3.6448    0.8780 H         1 ACP         0.1213
     40 H3'        -0.7374   -1.2358    1.9870 H         1 ACP         0.0524
     41 HO3'        1.1626   -1.9325    3.0084 H         1 ACP         0.4707
     42 H2'        -0.0384   -0.0310    0.0096 H         1 ACP         0.0774
     43 HO2'        2.1463   -0.7958    0.0370 H         1 ACP         0.4561
     44 H1'        -0.4769   -2.1002   -1.8093 H         1 ACP         0.1559
     45 H8         -2.1661   -0.2178    1.0311 H         1 ACP         0.2754
     46 HN61       -6.4010    0.4463   -0.9500 H         1 ACP         0.4584
     47 HN62       -7.1957   -0.0744   -2.4116 H         1 ACP         0.4584
     48 H2         -4.0645   -2.7171   -4.5389 H         1 ACP         0.0892
     49 H49        -4.5050    0.4395    0.3640 H         1 ACP         0.5039
@<TRIPOS>BOND
     1    1    2 2
     2    1    3 1
     3    1    4 1
     4    1    8 1
     5    3   32 1
     6    4   33 1
     7    5    6 2
     8    5    7 1
     9    5    8 1
    10    5   12 1
    11    8   34 1
    12    8   35 1
    13    9   10 2
    14    9   11 1
    15    9   12 1
    16    9   13 1
    17   11   36 1
    18   13   14 1
    19   14   15 1
    20   14   37 1
    21   14   38 1
    22   15   16 1
    23   15   17 1
    24   15   39 1
    25   16   21 1
    26   17   18 1
    27   17   19 1
    28   17   40 1
    29   18   41 1
    30   19   20 1
    31   19   21 1
    32   19   42 1
    33   20   43 1
    34   21   22 1
    35   21   44 1
    36   22   23 ar
    37   22   31 ar
    38   23   24 ar
    39   23   45 1
    40   24   25 ar
    41   24   49 1
    42   25   26 ar
    43   25   31 ar
    44   26   27 1
    45   26   28 ar
    46   27   46 1
    47   27   47 1
    48   28   29 ar
    49   29   30 ar
    50   29   48 1
    51   30   31 ar
@<TRIPOS>SUBSTRUCTURE
     1 ACP         1 GROUP 0 A     ****
@<TRIPOS>MOLECULE
[[5-(6-amino-7,8-dihydropurin-8-ylium-9-yl)-3,4-dihydroxy-tetrahydrofuran-2-yl]methoxy-hydroxy-phosphoryl]oxy-(phosphonomethyl)phosphinate
   49    51     1     0     0
SMALL
USER_CHARGES

@<TRIPOS>ATOM
      1 PG         -1.8870   -8.6842    2.1996 P.3       1 ACP         1.6362
      2 O1G        -1.6143   -7.4736    1.3585 O.2       1 ACP        -0.8691
      3 O2G        -3.4414   -8.9524    2.5492 O.3       1 ACP        -0.8016
      4 O3G        -1.3896  -10.0886    1.5750 O.3       1 ACP        -0.8016
      5 PB         -1.4390   -7.3353    5.0740 P.3       1 ACP         1.4874
      6 O1B        -0.6011   -7.6450    6.2929 O.co2     1 ACP        -0.8240
      7 O2B        -2.9390   -7.1689    5.1486 O.co2     1 ACP        -0.8240
      8 C3B        -1.0953   -8.6547    3.8240 C.3       1 ACP        -0.6510
      9 PA         -0.5051   -4.5580    4.7469 P.3       1 ACP         1.7966
     10 O1A         0.4194   -4.4346    5.9232 O.2       1 ACP        -0.8436
     11 O2A        -1.9864   -3.9569    4.9955 O.3       1 ACP        -0.8190
     12 O3A        -0.7854   -6.0774    4.2686 O.3       1 ACP        -0.7947
     13 O5'         0.0089   -3.8407    3.3906 O.3       1 ACP        -0.5846
     14 C5'        -0.7840   -3.8935    2.2172 C.3       1 ACP         0.2005
     15 C4'        -0.0724   -3.1466    1.1027 C.3       1 ACP         0.0711
     16 O4'        -0.8674   -3.1929   -0.0945 O.3       1 ACP        -0.4064
     17 C3'         0.1338   -1.6715    1.4027 C.3       1 ACP         0.0975
     18 O3'         1.2893   -1.4445    2.1808 O.3       1 ACP        -0.5957
     19 C2'         0.2158   -1.0724    0.0128 C.3       1 ACP         0.1195
     20 O2'         1.5141   -1.2448   -0.5513 O.3       1 ACP        -0.5845
     21 C1'        -0.7897   -1.9176   -0.7583 C.3       1 ACP         0.4064
     22 N9         -2.1040   -1.3333   -0.7704 N.pl3     1 ACP        -0.5630
     23 C8         -2.6611   -0.5376    0.1306 C.ar      1 ACP         0.2808
     24 N7         -3.9008   -0.1619   -0.1787 N.pl3     1 ACP        -0.5040
     25 C5         -4.1527   -0.7619   -1.3633 C.ar      1 ACP        -0.2807
     26 C6         -5.2376   -0.7682   -2.1896 C.ar      1 ACP         0.7712
     27 N6         -6.3842   -0.0312   -1.8286 N.pl3     1 ACP        -0.9461
     28 N1         -5.2214   -1.4713   -3.3433 N.ar      1 ACP        -0.7457
     29 C2         -4.0737   -2.1541   -3.6127 C.ar      1 ACP         0.7201
     30 N3         -2.9476   -2.2143   -2.8660 N.ar      1 ACP        -0.6849
     31 C4         -3.0383   -1.4958   -1.7429 C.ar      1 ACP         0.6369
     32 HOG2       -3.6779   -9.7311    3.0969 H         1 ACP         0.4781
     33 HOG3       -1.7521  -10.3797    0.7112 H         1 ACP         0.4781
     34 H3B1       -1.3347   -9.6047    4.3151 H         1 ACP         0.1236
     35 H3B2       -0.0113   -8.6433    3.6630 H         1 ACP         0.1236
     36 HOA2       -2.5358   -4.3327    5.7159 H         1 ACP         0.4716
     37 H5'1       -0.9362   -4.9413    1.9386 H         1 ACP         0.0529
     38 H5'2       -1.7563   -3.4348    2.4248 H         1 ACP         0.0529
     39 H4'         0.8886   -3.6448    0.8780 H         1 ACP         0.1213
     40 H3'        -0.7374   -1.2358    1.9870 H         1 ACP         0.0524
     41 HO3'        1.1626   -1.9325    3.0084 H         1 ACP         0.4707
     42 H2'        -0.0384   -0.0310    0.0096 H         1 ACP         0.0774
     43 HO2'        2.1463   -0.7958    0.0370 H         1 ACP         0.4561
     44 H1'        -0.4769   -2.1002   -1.8093 H         1 ACP         0.1559
     45 H8         -2.1661   -0.2178    1.0311 H         1 ACP         0.2754
     46 HN61       -6.4010    0.4463   -0.9500 H         1 ACP         0.4584
     47 HN62       -7.1957   -0.0744   -2.4116 H         1 ACP         0.4584
     48 H2         -4.0645   -2.7171   -4.5389 H         1 ACP         0.0892
     49 H49        -4.5050    0.4395    0.3640 H         1 ACP         0.5039
@<TRIPOS>BOND
     1    1    2 2
     2    1    3 1
     3    1    4 1
     4    1    8 1
     5    3   32 1
     6    4   33 1
     7    5    6 2
     8    5    7 1
     9    5    8 1
    10    5   12 1
    11    8   34 1
    12    8   35 1
    13    9   10 2
    14    9   11 1
    15    9   12 1
    16    9   13 1
    17   11   36 1
    18   13   14 1
    19   14   15 1
    20   14   37 1
    21   14   38 1
    22   15   16 1
    23   15   17 1
    24   15   39 1
    25   16   21 1
    26   17   18 1
    27   17   19 1
    28   17   40 1
    29   18   41 1
    30   19   20 1
    31   19   21 1
    32   19   42 1
    33   20   43 1
    34   21   22 1
    35   21   44 1
    36   22   23 ar
    37   22   31 ar
    38   23   24 ar
    39   23   45 1
    40   24   25 ar
    41   24   49 1
    42   25   26 ar
    43   25   31 ar
    44   26   27 1
    45   26   28 ar
    46   27   46 1
    47   27   47 1
    48   28   29 ar
    49   29   30 ar
    50   29   48 1
    51   30   31 ar
@<TRIPOS>SUBSTRUCTURE
     1 ACP         1 GROUP 0 A     ****
@<TRIPOS>MOLECULE
[[5-(6-amino-7,8-dihydropurin-8-ylium-9-yl)-3,4-dihydroxy-tetrahydrofuran-2-yl]methoxy-hydroxy-phosphoryl]oxy-(phosphonomethyl)phosphinate
   49    51     1     0     0
SMALL
USER_CHARGES

@<TRIPOS>ATOM
      1 PG          0.5575   -8.9549    3.1573 P.3       1 ACP         1.6362
      2 O1G         1.5811   -9.3229    4.1890 O.2       1 ACP        -0.8691
      3 O2G         0.8687   -7.6103    2.3176 O.3       1 ACP        -0.8016
      4 O3G         0.2953  -10.0656    2.0140 O.3       1 ACP        -0.8016
      5 PB         -1.4390   -7.3353    5.0740 P.3       1 ACP         1.4874
      6 O1B        -0.6011   -7.6450    6.2929 O.co2     1 ACP        -0.8240
      7 O2B        -2.9390   -7.1689    5.1486 O.co2     1 ACP        -0.8240
      8 C3B        -1.0953   -8.6547    3.8240 C.3       1 ACP        -0.6510
      9 PA         -0.5051   -4.5580    4.7469 P.3       1 ACP         1.7966
     10 O1A         0.4194   -4.4346    5.9232 O.2       1 ACP        -0.8436
     11 O2A        -1.9864   -3.9569    4.9955 O.3       1 ACP        -0.8190
     12 O3A        -0.7854   -6.0774    4.2686 O.3       1 ACP        -0.7947
     13 O5'         0.0089   -3.8407    3.3906 O.3       1 ACP        -0.5846
     14 C5'        -0.7840   -3.8935    2.2172 C.3       1 ACP         0.2005
     15 C4'        -0.0724   -3.1466    1.1027 C.3       1 ACP         0.0711
     16 O4'        -0.8674   -3.1929   -0.0945 O.3       1 ACP        -0.4064
     17 C3'         0.1338   -1.6715    1.4027 C.3       1 ACP         0.0975
     18 O3'         1.2893   -1.4445    2.1808 O.3       1 ACP        -0.5957
     19 C2'         0.2158   -1.0724    0.0128 C.3       1 ACP         0.1195
     20 O2'         1.5141   -1.2448   -0.5513 O.3       1 ACP        -0.5845
     21 C1'        -0.7897   -1.9176   -0.7583 C.3       1 ACP         0.4064
     22 N9         -2.1040   -1.3333   -0.7704 N.pl3     1 ACP        -0.5630
     23 C8         -2.6611   -0.5376    0.1306 C.ar      1 ACP         0.2808
     24 N7         -3.9008   -0.1619   -0.1787 N.pl3     1 ACP        -0.5040
     25 C5         -4.1527   -0.7619   -1.3633 C.ar      1 ACP        -0.2807
     26 C6         -5.2376   -0.7682   -2.1896 C.ar      1 ACP         0.7712
     27 N6         -6.3842   -0.0312   -1.8286 N.pl3     1 ACP        -0.9461
     28 N1         -5.2214   -1.4713   -3.3433 N.ar      1 ACP        -0.7457
     29 C2         -4.0737   -2.1541   -3.6127 C.ar      1 ACP         0.7201
     30 N3         -2.9476   -2.2143   -2.8660 N.ar      1 ACP        -0.6849
     31 C4         -3.0383   -1.4958   -1.7429 C.ar      1 ACP         0.6369
     32 HOG2        0.9578   -6.7597    2.7980 H         1 ACP         0.4781
     33 HOG3        1.0416  -10.3435    1.4411 H         1 ACP         0.4781
     34 H3B1       -1.7510   -8.4410    2.9724 H         1 ACP         0.1236
     35 H3B2       -1.4470   -9.5921    4.2698 H         1 ACP         0.1236
     36 HOA2       -2.0810   -3.0066    5.2194 H         1 ACP         0.4716
     37 H5'1       -0.9362   -4.9413    1.9386 H         1 ACP         0.0529
     38 H5'2       -1.7563   -3.4348    2.4248 H         1 ACP         0.0529
     39 H4'         0.8886   -3.6448    0.8780 H         1 ACP         0.1213
     40 H3'        -0.7374   -1.2358    1.9870 H         1 ACP         0.0524
     41 HO3'        1.1626   -1.9325    3.0084 H         1 ACP         0.4707
     42 H2'        -0.0384   -0.0310    0.0096 H         1 ACP         0.0774
     43 HO2'        2.1463   -0.7958    0.0370 H         1 ACP         0.4561
     44 H1'        -0.4769   -2.1002   -1.8093 H         1 ACP         0.1559
     45 H8         -2.1661   -0.2178    1.0311 H         1 ACP         0.2754
     46 HN61       -6.4010    0.4463   -0.9500 H         1 ACP         0.4584
     47 HN62       -7.1957   -0.0744   -2.4116 H         1 ACP         0.4584
     48 H2         -4.0645   -2.7171   -4.5389 H         1 ACP         0.0892
     49 H49        -4.5050    0.4395    0.3640 H         1 ACP         0.5039
@<TRIPOS>BOND
     1    1    2 2
     2    1    3 1
     3    1    4 1
     4    1    8 1
     5    3   32 1
     6    4   33 1
     7    5    6 2
     8    5    7 1
     9    5    8 1
    10    5   12 1
    11    8   34 1
    12    8   35 1
    13    9   10 2
    14    9   11 1
    15    9   12 1
    16    9   13 1
    17   11   36 1
    18   13   14 1
    19   14   15 1
    20   14   37 1
    21   14   38 1
    22   15   16 1
    23   15   17 1
    24   15   39 1
    25   16   21 1
    26   17   18 1
    27   17   19 1
    28   17   40 1
    29   18   41 1
    30   19   20 1
    31   19   21 1
    32   19   42 1
    33   20   43 1
    34   21   22 1
    35   21   44 1
    36   22   23 ar
    37   22   31 ar
    38   23   24 ar
    39   23   45 1
    40   24   25 ar
    41   24   49 1
    42   25   26 ar
    43   25   31 ar
    44   26   27 1
    45   26   28 ar
    46   27   46 1
    47   27   47 1
    48   28   29 ar
    49   29   30 ar
    50   29   48 1
    51   30   31 ar
@<TRIPOS>SUBSTRUCTURE
     1 ACP         1 GROUP 0 A     ****
@<TRIPOS>MOLECULE
[[5-(6-amino-7,8-dihydropurin-8-ylium-9-yl)-3,4-dihydroxy-tetrahydrofuran-2-yl]methoxy-hydroxy-phosphoryl]oxy-(phosphonomethyl)phosphinate
   49    51     1     0     0
SMALL
USER_CHARGES

@<TRIPOS>ATOM
      1 PG          3.1243    0.4517   -7.1205 P.3       1 ACP         1.6362
      2 O1G         3.8936    0.6536   -5.8498 O.2       1 ACP        -0.8691
      3 O2G         2.9484    1.7660   -8.0434 O.3       1 ACP        -0.8016
      4 O3G         3.7369   -0.6464   -8.1348 O.3       1 ACP        -0.8016
      5 PB          1.0204   -1.7062   -6.0250 P.3       1 ACP         1.4874
      6 O1B         1.6708   -2.8171   -6.8164 O.co2     1 ACP        -0.8240
      7 O2B        -0.4610   -1.6897   -5.7272 O.co2     1 ACP        -0.8240
      8 C3B         1.4255   -0.1161   -6.8789 C.3       1 ACP        -0.6510
      9 PA          2.1858   -2.4502   -3.4210 P.3       1 ACP         1.7966
     10 O1A         2.9584   -3.6795   -3.8027 O.2       1 ACP        -0.8436
     11 O2A         0.7319   -2.7483   -2.7769 O.3       1 ACP        -0.8190
     12 O3A         1.8605   -1.4518   -4.6510 O.3       1 ACP        -0.7947
     13 O5'         2.9195   -1.4814   -2.3528 O.3       1 ACP        -0.5846
     14 C5'         2.2816   -0.2918   -1.9206 C.3       1 ACP         0.2005
     15 C4'         2.7248    0.0226   -0.4980 C.3       1 ACP         0.0711
     16 O4'         2.4697    1.4219   -0.2462 O.3       1 ACP        -0.4064
     17 C3'         1.9404   -0.7419    0.5596 C.3       1 ACP         0.0975
     18 O3'         2.7418   -0.8086    1.7389 O.3       1 ACP        -0.5957
     19 C2'         0.7477    0.1630    0.7858 C.3       1 ACP         0.1195
     20 O2'         0.1373   -0.0577    2.0407 O.3       1 ACP        -0.5845
     21 C1'         1.3733    1.5427    0.6747 C.3       1 ACP         0.4064
     22 N9          0.4520    2.5240    0.1767 N.pl3     1 ACP        -0.5630
     23 C8         -0.8252    2.3702   -0.1405 C.ar      1 ACP         0.2808
     24 N7         -1.4086    3.4861   -0.5739 N.pl3     1 ACP        -0.5040
     25 C5         -0.4324    4.4197   -0.5299 C.ar      1 ACP        -0.2807
     26 C6         -0.4006    5.7465   -0.8438 C.ar      1 ACP         0.7712
     27 N6         -1.5714    6.3708   -1.3211 N.pl3     1 ACP        -0.9461
     28 N1          0.7371    6.4615   -0.7020 N.ar      1 ACP        -0.7457
     29 C2          1.8196    5.7785   -0.2355 C.ar      1 ACP         0.7201
     30 N3          1.8948    4.4713    0.1036 N.ar      1 ACP        -0.6849
     31 C4          0.7337    3.8311   -0.0629 C.ar      1 ACP         0.6369
     32 HOG2        3.7493    2.2179   -8.3848 H         1 ACP         0.4781
     33 HOG3        3.2751   -0.8204   -8.9825 H         1 ACP         0.4781
     34 H3B1        0.9014    0.6677   -6.3206 H         1 ACP         0.1236
     35 H3B2        0.9531   -0.1746   -7.8661 H         1 ACP         0.1236
     36 HOA2        0.6780   -3.2767   -1.9523 H         1 ACP         0.4716
     37 H5'1        2.5577    0.5244   -2.5962 H         1 ACP         0.0529
     38 H5'2        1.1970   -0.4361   -1.9603 H         1 ACP         0.0529
     39 H4'         3.8049   -0.1388   -0.4009 H         1 ACP         0.1213
     40 H3'         1.6783   -1.7629    0.2715 H         1 ACP         0.0524
     41 HO3'        2.2232   -1.2979    2.3953 H         1 ACP         0.4707
     42 H2'        -0.0011    0.0027    0.0003 H         1 ACP         0.0774
     43 HO2'       -0.1563   -0.9855    2.0596 H         1 ACP         0.4561
     44 H1'         1.7826    1.9024    1.6451 H         1 ACP         0.1559
     45 H8         -1.3516    1.4351   -0.0582 H         1 ACP         0.2754
     46 HN61       -2.3936    5.8204   -1.4664 H         1 ACP         0.4584
     47 HN62       -1.5348    7.3319   -1.5955 H         1 ACP         0.4584
     48 H2          2.7305    6.3553   -0.1232 H         1 ACP         0.0892
     49 H49        -2.3700    3.5931   -0.8665 H         1 ACP         0.5039
@<TRIPOS>BOND
     1    1    2 2
     2    1    3 1
     3    1    4 1
     4    1    8 1
     5    3   32 1
     6    4   33 1
     7    5    6 2
     8    5    7 1
     9    5    8 1
    10    5   12 1
    11    8   34 1
    12    8   35 1
    13    9   10 2
    14    9   11 1
    15    9   12 1
    16    9   13 1
    17   11   36 1
    18   13   14 1
    19   14   15 1
    20   14   37 1
    21   14   38 1
    22   15   16 1
    23   15   17 1
    24   15   39 1
    25   16   21 1
    26   17   18 1
    27   17   19 1
    28   17   40 1
    29   18   41 1
    30   19   20 1
    31   19   21 1
    32   19   42 1
    33   20   43 1
    34   21   22 1
    35   21   44 1
    36   22   23 ar
    37   22   31 ar
    38   23   24 ar
    39   23   45 1
    40   24   25 ar
    41   24   49 1
    42   25   26 ar
    43   25   31 ar
    44   26   27 1
    45   26   28 ar
    46   27   46 1
    47   27   47 1
    48   28   29 ar
    49   29   30 ar
    50   29   48 1
    51   30   31 ar
@<TRIPOS>SUBSTRUCTURE
     1 ACP         1 GROUP 0 A     ****
@<TRIPOS>MOLECULE
[[5-(6-amino-7,8-dihydropurin-8-ylium-9-yl)-3,4-dihydroxy-tetrahydrofuran-2-yl]methoxy-hydroxy-phosphoryl]oxy-(phosphonomethyl)phosphinate
   49    51     1     0     0
SMALL
USER_CHARGES

@<TRIPOS>ATOM
      1 PG         -0.5021   -8.1227    0.8105 P.3       1 ACP         1.6362
      2 O1G        -1.7428   -7.7074    1.5424 O.2       1 ACP        -0.8691
      3 O2G        -0.5633   -9.5755    0.1066 O.3       1 ACP        -0.8016
      4 O3G        -0.0408   -7.1394   -0.3853 O.3       1 ACP        -0.8016
      5 PB          1.6425   -6.7714    2.7745 P.3       1 ACP         1.4874
      6 O1B         1.9839   -5.7103    1.7541 O.co2     1 ACP        -0.8240
      7 O2B         2.6593   -7.2973    3.7610 O.co2     1 ACP        -0.8240
      8 C3B         0.9738   -8.2263    1.8485 C.3       1 ACP        -0.6510
      9 PA         -0.0534   -5.0501    4.4638 P.3       1 ACP         1.7966
     10 O1A         0.8302   -4.8821    5.6658 O.2       1 ACP        -0.8436
     11 O2A        -1.6254   -5.2153    4.8082 O.3       1 ACP        -0.8190
     12 O3A         0.2783   -6.3512    3.5622 O.3       1 ACP        -0.7947
     13 O5'         0.0089   -3.8407    3.3906 O.3       1 ACP        -0.5846
     14 C5'        -0.7840   -3.8935    2.2172 C.3       1 ACP         0.2005
     15 C4'        -0.0724   -3.1466    1.1027 C.3       1 ACP         0.0711
     16 O4'        -0.8674   -3.1929   -0.0945 O.3       1 ACP        -0.4064
     17 C3'         0.1338   -1.6715    1.4027 C.3       1 ACP         0.0975
     18 O3'         1.2893   -1.4445    2.1808 O.3       1 ACP        -0.5957
     19 C2'         0.2158   -1.0724    0.0128 C.3       1 ACP         0.1195
     20 O2'         1.5141   -1.2448   -0.5513 O.3       1 ACP        -0.5845
     21 C1'        -0.7897   -1.9176   -0.7583 C.3       1 ACP         0.4064
     22 N9         -2.1040   -1.3333   -0.7704 N.pl3     1 ACP        -0.5630
     23 C8         -2.6611   -0.5376    0.1306 C.ar      1 ACP         0.2808
     24 N7         -3.9008   -0.1619   -0.1787 N.pl3     1 ACP        -0.5040
     25 C5         -4.1527   -0.7619   -1.3633 C.ar      1 ACP        -0.2807
     26 C6         -5.2376   -0.7682   -2.1896 C.ar      1 ACP         0.7712
     27 N6         -6.3842   -0.0312   -1.8286 N.pl3     1 ACP        -0.9461
     28 N1         -5.2214   -1.4713   -3.3433 N.ar      1 ACP        -0.7457
     29 C2         -4.0737   -2.1541   -3.6127 C.ar      1 ACP         0.7201
     30 N3         -2.9476   -2.2143   -2.8660 N.ar      1 ACP        -0.6849
     31 C4         -3.0383   -1.4958   -1.7429 C.ar      1 ACP         0.6369
     32 HOG2       -1.2445   -9.7433   -0.5790 H         1 ACP         0.4781
     33 HOG3        0.7648   -7.3614   -0.8992 H         1 ACP         0.4781
     34 H3B1        0.7838   -9.0005    2.6005 H         1 ACP         0.1236
     35 H3B2        1.7954   -8.5876    1.2195 H         1 ACP         0.1236
     36 HOA2       -2.0841   -4.4933    5.2883 H         1 ACP         0.4716
     37 H5'1       -0.9362   -4.9413    1.9386 H         1 ACP         0.0529
     38 H5'2       -1.7563   -3.4348    2.4248 H         1 ACP         0.0529
     39 H4'         0.8886   -3.6448    0.8780 H         1 ACP         0.1213
     40 H3'        -0.7374   -1.2358    1.9870 H         1 ACP         0.0524
     41 HO3'        1.3408   -0.4870    2.3219 H         1 ACP         0.4707
     42 H2'        -0.0384   -0.0310    0.0096 H         1 ACP         0.0774
     43 HO2'        2.1463   -0.7958    0.0370 H         1 ACP         0.4561
     44 H1'        -0.4769   -2.1002   -1.8093 H         1 ACP         0.1559
     45 H8         -2.1661   -0.2178    1.0311 H         1 ACP         0.2754
     46 HN61       -7.1613    0.0019   -2.4572 H         1 ACP         0.4584
     47 HN62       -6.3662    0.5223   -0.9957 H         1 ACP         0.4584
     48 H2         -4.0645   -2.7171   -4.5389 H         1 ACP         0.0892
     49 H49        -4.5050    0.4395    0.3640 H         1 ACP         0.5039
@<TRIPOS>BOND
     1    1    2 2
     2    1    3 1
     3    1    4 1
     4    1    8 1
     5    3   32 1
     6    4   33 1
     7    5    6 2
     8    5    7 1
     9    5    8 1
    10    5   12 1
    11    8   34 1
    12    8   35 1
    13    9   10 2
    14    9   11 1
    15    9   12 1
    16    9   13 1
    17   11   36 1
    18   13   14 1
    19   14   15 1
    20   14   37 1
    21   14   38 1
    22   15   16 1
    23   15   17 1
    24   15   39 1
    25   16   21 1
    26   17   18 1
    27   17   19 1
    28   17   40 1
    29   18   41 1
    30   19   20 1
    31   19   21 1
    32   19   42 1
    33   20   43 1
    34   21   22 1
    35   21   44 1
    36   22   23 ar
    37   22   31 ar
    38   23   24 ar
    39   23   45 1
    40   24   25 ar
    41   24   49 1
    42   25   26 ar
    43   25   31 ar
    44   26   27 1
    45   26   28 ar
    46   27   46 1
    47   27   47 1
    48   28   29 ar
    49   29   30 ar
    50   29   48 1
    51   30   31 ar
@<TRIPOS>SUBSTRUCTURE
     1 ACP         1 GROUP 0 A     ****
@<TRIPOS>MOLECULE
[[5-(6-amino-7,8-dihydropurin-8-ylium-9-yl)-3,4-dihydroxy-tetrahydrofuran-2-yl]methoxy-hydroxy-phosphoryl]oxy-(phosphonomethyl)phosphinate
   49    51     1     0     0
SMALL
USER_CHARGES

@<TRIPOS>ATOM
      1 PG          2.5912   -7.9777    1.7392 P.3       1 ACP         1.6362
      2 O1G         2.5957   -6.5139    1.4159 O.2       1 ACP        -0.8691
      3 O2G         2.8872   -8.9656    0.4955 O.3       1 ACP        -0.8016
      4 O3G         3.6593   -8.4438    2.8581 O.3       1 ACP        -0.8016
      5 PB          0.2671   -7.9352    3.9482 P.3       1 ACP         1.4874
      6 O1B         1.2536   -8.1901    5.0642 O.co2     1 ACP        -0.8240
      7 O2B        -1.1573   -8.4368    4.0016 O.co2     1 ACP        -0.8240
      8 C3B         1.0208   -8.5903    2.3912 C.3       1 ACP        -0.6510
      9 PA         -0.0534   -5.0501    4.4638 P.3       1 ACP         1.7966
     10 O1A         0.8302   -4.8821    5.6658 O.2       1 ACP        -0.8436
     11 O2A        -1.6254   -5.2153    4.8082 O.3       1 ACP        -0.8190
     12 O3A         0.2783   -6.3512    3.5622 O.3       1 ACP        -0.7947
     13 O5'         0.0089   -3.8407    3.3906 O.3       1 ACP        -0.5846
     14 C5'        -0.7840   -3.8935    2.2172 C.3       1 ACP         0.2005
     15 C4'        -0.0724   -3.1466    1.1027 C.3       1 ACP         0.0711
     16 O4'        -0.8674   -3.1929   -0.0945 O.3       1 ACP        -0.4064
     17 C3'         0.1338   -1.6715    1.4027 C.3       1 ACP         0.0975
     18 O3'         1.2893   -1.4445    2.1808 O.3       1 ACP        -0.5957
     19 C2'         0.2158   -1.0724    0.0128 C.3       1 ACP         0.1195
     20 O2'         1.5141   -1.2448   -0.5513 O.3       1 ACP        -0.5845
     21 C1'        -0.7897   -1.9176   -0.7583 C.3       1 ACP         0.4064
     22 N9         -2.1040   -1.3333   -0.7704 N.pl3     1 ACP        -0.5630
     23 C8         -2.6611   -0.5376    0.1306 C.ar      1 ACP         0.2808
     24 N7         -3.9008   -0.1619   -0.1787 N.pl3     1 ACP        -0.5040
     25 C5         -4.1527   -0.7619   -1.3633 C.ar      1 ACP        -0.2807
     26 C6         -5.2376   -0.7682   -2.1896 C.ar      1 ACP         0.7712
     27 N6         -6.3842   -0.0312   -1.8286 N.pl3     1 ACP        -0.9461
     28 N1         -5.2214   -1.4713   -3.3433 N.ar      1 ACP        -0.7457
     29 C2         -4.0737   -2.1541   -3.6127 C.ar      1 ACP         0.7201
     30 N3         -2.9476   -2.2143   -2.8660 N.ar      1 ACP        -0.6849
     31 C4         -3.0383   -1.4958   -1.7429 C.ar      1 ACP         0.6369
     32 HOG2        2.8965   -9.9343    0.6496 H         1 ACP         0.4781
     33 HOG3        4.6149   -8.2949    2.6942 H         1 ACP         0.4781
     34 H3B1        0.2689   -8.4437    1.6076 H         1 ACP         0.1236
     35 H3B2        1.1229   -9.6718    2.5368 H         1 ACP         0.1236
     36 HOA2       -2.0841   -4.4933    5.2883 H         1 ACP         0.4716
     37 H5'1       -0.9362   -4.9413    1.9386 H         1 ACP         0.0529
     38 H5'2       -1.7563   -3.4348    2.4248 H         1 ACP         0.0529
     39 H4'         0.8886   -3.6448    0.8780 H         1 ACP         0.1213
     40 H3'        -0.7374   -1.2358    1.9870 H         1 ACP         0.0524
     41 HO3'        1.3408   -0.4870    2.3219 H         1 ACP         0.4707
     42 H2'        -0.0384   -0.0310    0.0096 H         1 ACP         0.0774
     43 HO2'        2.1463   -0.7958    0.0370 H         1 ACP         0.4561
     44 H1'        -0.4769   -2.1002   -1.8093 H         1 ACP         0.1559
     45 H8         -2.1661   -0.2178    1.0311 H         1 ACP         0.2754
     46 HN61       -6.4010    0.4463   -0.9500 H         1 ACP         0.4584
     47 HN62       -7.1957   -0.0744   -2.4116 H         1 ACP         0.4584
     48 H2         -4.0645   -2.7171   -4.5389 H         1 ACP         0.0892
     49 H49        -4.5050    0.4395    0.3640 H         1 ACP         0.5039
@<TRIPOS>BOND
     1    1    2 2
     2    1    3 1
     3    1    4 1
     4    1    8 1
     5    3   32 1
     6    4   33 1
     7    5    6 2
     8    5    7 1
     9    5    8 1
    10    5   12 1
    11    8   34 1
    12    8   35 1
    13    9   10 2
    14    9   11 1
    15    9   12 1
    16    9   13 1
    17   11   36 1
    18   13   14 1
    19   14   15 1
    20   14   37 1
    21   14   38 1
    22   15   16 1
    23   15   17 1
    24   15   39 1
    25   16   21 1
    26   17   18 1
    27   17   19 1
    28   17   40 1
    29   18   41 1
    30   19   20 1
    31   19   21 1
    32   19   42 1
    33   20   43 1
    34   21   22 1
    35   21   44 1
    36   22   23 ar
    37   22   31 ar
    38   23   24 ar
    39   23   45 1
    40   24   25 ar
    41   24   49 1
    42   25   26 ar
    43   25   31 ar
    44   26   27 1
    45   26   28 ar
    46   27   46 1
    47   27   47 1
    48   28   29 ar
    49   29   30 ar
    50   29   48 1
    51   30   31 ar
@<TRIPOS>SUBSTRUCTURE
     1 ACP         1 GROUP 0 A     ****
@<TRIPOS>MOLECULE
[[5-(6-amino-7,8-dihydropurin-8-ylium-9-yl)-3,4-dihydroxy-tetrahydrofuran-2-yl]methoxy-hydroxy-phosphoryl]oxy-(phosphonomethyl)phosphinate
   49    51     1     0     0
SMALL
USER_CHARGES

@<TRIPOS>ATOM
      1 PG          0.3181   -0.2934   -7.5785 P.3       1 ACP         1.6362
      2 O1G         0.8408   -1.0487   -8.7633 O.2       1 ACP        -0.8691
      3 O2G        -0.6051    0.9871   -7.9219 O.3       1 ACP        -0.8016
      4 O3G        -0.5884   -1.1524   -6.5537 O.3       1 ACP        -0.8016
      5 PB          2.8638   -0.6598   -5.6632 P.3       1 ACP         1.4874
      6 O1B         3.7582    0.2630   -4.8682 O.co2     1 ACP        -0.8240
      7 O2B         3.4097   -1.6201   -6.6944 O.co2     1 ACP        -0.8240
      8 C3B         1.6029    0.3957   -6.5104 C.3       1 ACP        -0.6510
      9 PA          2.1858   -2.4502   -3.4210 P.3       1 ACP         1.7966
     10 O1A         2.9584   -3.6795   -3.8027 O.2       1 ACP        -0.8436
     11 O2A         0.7319   -2.7483   -2.7769 O.3       1 ACP        -0.8190
     12 O3A         1.8605   -1.4518   -4.6510 O.3       1 ACP        -0.7947
     13 O5'         2.9195   -1.4814   -2.3528 O.3       1 ACP        -0.5846
     14 C5'         2.2816   -0.2918   -1.9206 C.3       1 ACP         0.2005
     15 C4'         2.7248    0.0226   -0.4980 C.3       1 ACP         0.0711
     16 O4'         2.4697    1.4219   -0.2462 O.3       1 ACP        -0.4064
     17 C3'         1.9404   -0.7419    0.5596 C.3       1 ACP         0.0975
     18 O3'         2.7418   -0.8086    1.7389 O.3       1 ACP        -0.5957
     19 C2'         0.7477    0.1630    0.7858 C.3       1 ACP         0.1195
     20 O2'         0.1373   -0.0577    2.0407 O.3       1 ACP        -0.5845
     21 C1'         1.3733    1.5427    0.6747 C.3       1 ACP         0.4064
     22 N9          0.4520    2.5240    0.1767 N.pl3     1 ACP        -0.5630
     23 C8         -0.8252    2.3702   -0.1405 C.ar      1 ACP         0.2808
     24 N7         -1.4086    3.4861   -0.5739 N.pl3     1 ACP        -0.5040
     25 C5         -0.4324    4.4197   -0.5299 C.ar      1 ACP        -0.2807
     26 C6         -0.4006    5.7465   -0.8438 C.ar      1 ACP         0.7712
     27 N6         -1.5714    6.3708   -1.3211 N.pl3     1 ACP        -0.9461
     28 N1          0.7371    6.4615   -0.7020 N.ar      1 ACP        -0.7457
     29 C2          1.8196    5.7785   -0.2355 C.ar      1 ACP         0.7201
     30 N3          1.8948    4.4713    0.1036 N.ar      1 ACP        -0.6849
     31 C4          0.7337    3.8311   -0.0629 C.ar      1 ACP         0.6369
     32 HOG2       -1.4319    0.8538   -8.4326 H         1 ACP         0.4781
     33 HOG3       -0.9576   -0.7099   -5.7600 H         1 ACP         0.4781
     34 H3B1        2.1685    1.1161   -7.1122 H         1 ACP         0.1236
     35 H3B2        1.1037    0.9647   -5.7179 H         1 ACP         0.1236
     36 HOA2        0.6780   -3.2767   -1.9523 H         1 ACP         0.4716
     37 H5'1        2.5577    0.5244   -2.5962 H         1 ACP         0.0529
     38 H5'2        1.1970   -0.4361   -1.9603 H         1 ACP         0.0529
     39 H4'         3.8049   -0.1388   -0.4009 H         1 ACP         0.1213
     40 H3'         1.6783   -1.7629    0.2715 H         1 ACP         0.0524
     41 HO3'        2.2232   -1.2979    2.3953 H         1 ACP         0.4707
     42 H2'        -0.0011    0.0027    0.0003 H         1 ACP         0.0774
     43 HO2'       -0.1563   -0.9855    2.0596 H         1 ACP         0.4561
     44 H1'         1.7826    1.9024    1.6451 H         1 ACP         0.1559
     45 H8         -1.3516    1.4351   -0.0582 H         1 ACP         0.2754
     46 HN61       -2.3936    5.8204   -1.4664 H         1 ACP         0.4584
     47 HN62       -1.5348    7.3319   -1.5955 H         1 ACP         0.4584
     48 H2          2.7305    6.3553   -0.1232 H         1 ACP         0.0892
     49 H49        -2.3700    3.5931   -0.8665 H         1 ACP         0.5039
@<TRIPOS>BOND
     1    1    2 2
     2    1    3 1
     3    1    4 1
     4    1    8 1
     5    3   32 1
     6    4   33 1
     7    5    6 2
     8    5    7 1
     9    5    8 1
    10    5   12 1
    11    8   34 1
    12    8   35 1
    13    9   10 2
    14    9   11 1
    15    9   12 1
    16    9   13 1
    17   11   36 1
    18   13   14 1
    19   14   15 1
    20   14   37 1
    21   14   38 1
    22   15   16 1
    23   15   17 1
    24   15   39 1
    25   16   21 1
    26   17   18 1
    27   17   19 1
    28   17   40 1
    29   18   41 1
    30   19   20 1
    31   19   21 1
    32   19   42 1
    33   20   43 1
    34   21   22 1
    35   21   44 1
    36   22   23 ar
    37   22   31 ar
    38   23   24 ar
    39   23   45 1
    40   24   25 ar
    41   24   49 1
    42   25   26 ar
    43   25   31 ar
    44   26   27 1
    45   26   28 ar
    46   27   46 1
    47   27   47 1
    48   28   29 ar
    49   29   30 ar
    50   29   48 1
    51   30   31 ar
@<TRIPOS>SUBSTRUCTURE
     1 ACP         1 GROUP 0 A     ****
@<TRIPOS>MOLECULE
[[5-(6-amino-7,8-dihydropurin-8-ylium-9-yl)-3,4-dihydroxy-tetrahydrofuran-2-yl]methoxy-hydroxy-phosphoryl]oxy-(phosphonomethyl)phosphinate
   49    51     1     0     0
SMALL
USER_CHARGES

@<TRIPOS>ATOM
      1 PG          0.8483    1.4862   -6.2741 P.3       1 ACP         1.6362
      2 O1G         1.3129    1.8267   -4.8900 O.2       1 ACP        -0.8691
      3 O2G        -0.7532    1.4013   -6.4690 O.3       1 ACP        -0.8016
      4 O3G         1.3194    2.5070   -7.4342 O.3       1 ACP        -0.8016
      5 PB          1.0204   -1.7062   -6.0250 P.3       1 ACP         1.4874
      6 O1B         1.6708   -2.8171   -6.8164 O.co2     1 ACP        -0.8240
      7 O2B        -0.4610   -1.6897   -5.7272 O.co2     1 ACP        -0.8240
      8 C3B         1.4255   -0.1161   -6.8789 C.3       1 ACP        -0.6510
      9 PA          2.1858   -2.4502   -3.4210 P.3       1 ACP         1.7966
     10 O1A         2.9584   -3.6795   -3.8027 O.2       1 ACP        -0.8436
     11 O2A         0.7319   -2.7483   -2.7769 O.3       1 ACP        -0.8190
     12 O3A         1.8605   -1.4518   -4.6510 O.3       1 ACP        -0.7947
     13 O5'         2.9195   -1.4814   -2.3528 O.3       1 ACP        -0.5846
     14 C5'         2.2816   -0.2918   -1.9206 C.3       1 ACP         0.2005
     15 C4'         2.7248    0.0226   -0.4980 C.3       1 ACP         0.0711
     16 O4'         2.4697    1.4219   -0.2462 O.3       1 ACP        -0.4064
     17 C3'         1.9404   -0.7419    0.5596 C.3       1 ACP         0.0975
     18 O3'         2.7418   -0.8086    1.7389 O.3       1 ACP        -0.5957
     19 C2'         0.7477    0.1630    0.7858 C.3       1 ACP         0.1195
     20 O2'         0.1373   -0.0577    2.0407 O.3       1 ACP        -0.5845
     21 C1'         1.3733    1.5427    0.6747 C.3       1 ACP         0.4064
     22 N9          0.4520    2.5240    0.1767 N.pl3     1 ACP        -0.5630
     23 C8          0.0623    3.6542    0.7479 C.ar      1 ACP         0.2808
     24 N7         -0.8074    4.3516    0.0193 N.pl3     1 ACP        -0.5040
     25 C5         -0.9855    3.6123   -1.0979 C.ar      1 ACP        -0.2807
     26 C6         -1.7474    3.7860   -2.2156 C.ar      1 ACP         0.7712
     27 N6         -2.5511    4.9389   -2.3303 N.pl3     1 ACP        -0.9461
     28 N1         -1.7375    2.8675   -3.2064 N.ar      1 ACP        -0.7457
     29 C2         -0.9330    1.7853   -3.0121 C.ar      1 ACP         0.7201
     30 N3         -0.1423    1.5179   -1.9478 N.ar      1 ACP        -0.6849
     31 C4         -0.2044    2.4690   -1.0113 C.ar      1 ACP         0.6369
     32 HOG2       -1.2626    0.7508   -5.9403 H         1 ACP         0.4781
     33 HOG3        1.0504    3.4487   -7.3767 H         1 ACP         0.4781
     34 H3B1        1.0576   -0.2233   -7.9056 H         1 ACP         0.1236
     35 H3B2        2.5192   -0.0736   -6.9351 H         1 ACP         0.1236
     36 HOA2        0.6780   -3.2767   -1.9523 H         1 ACP         0.4716
     37 H5'1        2.5577    0.5244   -2.5962 H         1 ACP         0.0529
     38 H5'2        1.1970   -0.4361   -1.9603 H         1 ACP         0.0529
     39 H4'         3.8049   -0.1388   -0.4009 H         1 ACP         0.1213
     40 H3'         1.6783   -1.7629    0.2715 H         1 ACP         0.0524
     41 HO3'        2.2232   -1.2979    2.3953 H         1 ACP         0.4707
     42 H2'        -0.0011    0.0027    0.0003 H         1 ACP         0.0774
     43 HO2'       -0.6141    0.5574    2.1082 H         1 ACP         0.4561
     44 H1'         1.7826    1.9024    1.6451 H         1 ACP         0.1559
     45 H8          0.4111    3.9873    1.7100 H         1 ACP         0.2754
     46 HN61       -2.5859    5.5874   -1.5698 H         1 ACP         0.4584
     47 HN62       -3.1449    5.0423   -3.1284 H         1 ACP         0.4584
     48 H2         -0.9279    1.0504   -3.8088 H         1 ACP         0.0892
     49 H49        -1.2303    5.2364    0.2633 H         1 ACP         0.5039
@<TRIPOS>BOND
     1    1    2 2
     2    1    3 1
     3    1    4 1
     4    1    8 1
     5    3   32 1
     6    4   33 1
     7    5    6 2
     8    5    7 1
     9    5    8 1
    10    5   12 1
    11    8   34 1
    12    8   35 1
    13    9   10 2
    14    9   11 1
    15    9   12 1
    16    9   13 1
    17   11   36 1
    18   13   14 1
    19   14   15 1
    20   14   37 1
    21   14   38 1
    22   15   16 1
    23   15   17 1
    24   15   39 1
    25   16   21 1
    26   17   18 1
    27   17   19 1
    28   17   40 1
    29   18   41 1
    30   19   20 1
    31   19   21 1
    32   19   42 1
    33   20   43 1
    34   21   22 1
    35   21   44 1
    36   22   23 ar
    37   22   31 ar
    38   23   24 ar
    39   23   45 1
    40   24   25 ar
    41   24   49 1
    42   25   26 ar
    43   25   31 ar
    44   26   27 1
    45   26   28 ar
    46   27   46 1
    47   27   47 1
    48   28   29 ar
    49   29   30 ar
    50   29   48 1
    51   30   31 ar
@<TRIPOS>SUBSTRUCTURE
     1 ACP         1 GROUP 0 A     ****
@<TRIPOS>MOLECULE
[[5-(6-amino-7,8-dihydropurin-8-ylium-9-yl)-3,4-dihydroxy-tetrahydrofuran-2-yl]methoxy-hydroxy-phosphoryl]oxy-(phosphonomethyl)phosphinate
   49    51     1     0     0
SMALL
USER_CHARGES

@<TRIPOS>ATOM
      1 PG          1.7380    1.3523   -6.5217 P.3       1 ACP         1.6362
      2 O1G         2.5727    2.2218   -7.4133 O.2       1 ACP        -0.8691
      3 O2G         2.1310    1.3826   -4.9549 O.3       1 ACP        -0.8016
      4 O3G         0.1551    1.6748   -6.5235 O.3       1 ACP        -0.8016
      5 PB          0.8556   -1.6824   -5.9789 P.3       1 ACP         1.4874
      6 O1B         1.1540   -3.0226   -6.6100 O.co2     1 ACP        -0.8240
      7 O2B        -0.5548   -1.1658   -5.8137 O.co2     1 ACP        -0.8240
      8 C3B         1.7984   -0.4070   -6.9308 C.3       1 ACP        -0.6510
      9 PA          1.5750   -2.4621   -3.2281 P.3       1 ACP         1.7966
     10 O1A         1.9285   -3.9069   -3.4315 O.2       1 ACP        -0.8436
     11 O2A         0.0702   -2.2121   -2.6893 O.3       1 ACP        -0.8190
     12 O3A         1.6570   -1.5553   -4.5648 O.3       1 ACP        -0.7947
     13 O5'         2.5233   -1.6622   -2.1894 O.3       1 ACP        -0.5846
     14 C5'         2.2816   -0.2918   -1.9206 C.3       1 ACP         0.2005
     15 C4'         2.7248    0.0226   -0.4980 C.3       1 ACP         0.0711
     16 O4'         2.4697    1.4219   -0.2462 O.3       1 ACP        -0.4064
     17 C3'         1.9404   -0.7419    0.5596 C.3       1 ACP         0.0975
     18 O3'         2.7418   -0.8086    1.7389 O.3       1 ACP        -0.5957
     19 C2'         0.7477    0.1630    0.7858 C.3       1 ACP         0.1195
     20 O2'         0.1373   -0.0577    2.0407 O.3       1 ACP        -0.5845
     21 C1'         1.3733    1.5427    0.6747 C.3       1 ACP         0.4064
     22 N9          0.4520    2.5240    0.1767 N.pl3     1 ACP        -0.5630
     23 C8          0.0623    3.6542    0.7479 C.ar      1 ACP         0.2808
     24 N7         -0.8074    4.3516    0.0193 N.pl3     1 ACP        -0.5040
     25 C5         -0.9855    3.6123   -1.0979 C.ar      1 ACP        -0.2807
     26 C6         -1.7474    3.7860   -2.2156 C.ar      1 ACP         0.7712
     27 N6         -2.5511    4.9389   -2.3303 N.pl3     1 ACP        -0.9461
     28 N1         -1.7375    2.8675   -3.2064 N.ar      1 ACP        -0.7457
     29 C2         -0.9330    1.7853   -3.0121 C.ar      1 ACP         0.7201
     30 N3         -0.1423    1.5179   -1.9478 N.ar      1 ACP        -0.6849
     31 C4         -0.2044    2.4690   -1.0113 C.ar      1 ACP         0.6369
     32 HOG2        1.6178    0.8326   -4.3254 H         1 ACP         0.4781
     33 HOG3       -0.1489    2.5658   -6.2477 H         1 ACP         0.4781
     34 H3B1        1.4718   -0.5059   -7.9722 H         1 ACP         0.1236
     35 H3B2        2.8486   -0.7187   -6.8951 H         1 ACP         0.1236
     36 HOA2       -0.1963   -2.6013   -1.8292 H         1 ACP         0.4716
     37 H5'1        2.8428    0.3150   -2.6387 H         1 ACP         0.0529
     38 H5'2        1.2124   -0.0896   -2.0417 H         1 ACP         0.0529
     39 H4'         3.8049   -0.1388   -0.4009 H         1 ACP         0.1213
     40 H3'         1.6783   -1.7629    0.2715 H         1 ACP         0.0524
     41 HO3'        2.2232   -1.2979    2.3953 H         1 ACP         0.4707
     42 H2'        -0.0011    0.0027    0.0003 H         1 ACP         0.0774
     43 HO2'       -0.6141    0.5574    2.1082 H         1 ACP         0.4561
     44 H1'         1.7826    1.9024    1.6451 H         1 ACP         0.1559
     45 H8          0.4111    3.9873    1.7100 H         1 ACP         0.2754
     46 HN61       -2.5859    5.5874   -1.5698 H         1 ACP         0.4584
     47 HN62       -3.1449    5.0423   -3.1284 H         1 ACP         0.4584
     48 H2         -0.9279    1.0504   -3.8088 H         1 ACP         0.0892
     49 H49        -1.2303    5.2364    0.2633 H         1 ACP         0.5039
@<TRIPOS>BOND
     1    1    2 2
     2    1    3 1
     3    1    4 1
     4    1    8 1
     5    3   32 1
     6    4   33 1
     7    5    6 2
     8    5    7 1
     9    5    8 1
    10    5   12 1
    11    8   34 1
    12    8   35 1
    13    9   10 2
    14    9   11 1
    15    9   12 1
    16    9   13 1
    17   11   36 1
    18   13   14 1
    19   14   15 1
    20   14   37 1
    21   14   38 1
    22   15   16 1
    23   15   17 1
    24   15   39 1
    25   16   21 1
    26   17   18 1
    27   17   19 1
    28   17   40 1
    29   18   41 1
    30   19   20 1
    31   19   21 1
    32   19   42 1
    33   20   43 1
    34   21   22 1
    35   21   44 1
    36   22   23 ar
    37   22   31 ar
    38   23   24 ar
    39   23   45 1
    40   24   25 ar
    41   24   49 1
    42   25   26 ar
    43   25   31 ar
    44   26   27 1
    45   26   28 ar
    46   27   46 1
    47   27   47 1
    48   28   29 ar
    49   29   30 ar
    50   29   48 1
    51   30   31 ar
@<TRIPOS>SUBSTRUCTURE
     1 ACP         1 GROUP 0 A     ****
@<TRIPOS>MOLECULE
[[5-(6-amino-7,8-dihydropurin-8-ylium-9-yl)-3,4-dihydroxy-tetrahydrofuran-2-yl]methoxy-hydroxy-phosphoryl]oxy-(phosphonomethyl)phosphinate
   49    51     1     0     0
SMALL
USER_CHARGES

@<TRIPOS>ATOM
      1 PG         -0.6168   -1.4764   -7.0257 P.3       1 ACP         1.6362
      2 O1G        -0.3393   -0.9767   -8.4116 O.2       1 ACP        -0.8691
      3 O2G        -2.1033   -2.0604   -6.7816 O.3       1 ACP        -0.8016
      4 O3G         0.3485   -2.6652   -6.5112 O.3       1 ACP        -0.8016
      5 PB          1.1419    0.6718   -5.4211 P.3       1 ACP         1.4874
      6 O1B         0.8969    1.6307   -4.2792 O.co2     1 ACP        -0.8240
      7 O2B         1.6693    1.1317   -6.7605 O.co2     1 ACP        -0.8240
      8 C3B        -0.4464   -0.2225   -5.7353 C.3       1 ACP        -0.6510
      9 PA          3.4946   -0.6448   -4.2278 P.3       1 ACP         1.7966
     10 O1A         4.5894   -0.1038   -5.1010 O.2       1 ACP        -0.8436
     11 O2A         3.6755   -2.1987   -3.8153 O.3       1 ACP        -0.8190
     12 O3A         2.0199   -0.5952   -4.8900 O.3       1 ACP        -0.7947
     13 O5'         3.2874    0.1331   -2.8242 O.3       1 ACP        -0.5846
     14 C5'         2.2816   -0.2918   -1.9206 C.3       1 ACP         0.2005
     15 C4'         2.7248    0.0226   -0.4980 C.3       1 ACP         0.0711
     16 O4'         2.4697    1.4219   -0.2462 O.3       1 ACP        -0.4064
     17 C3'         1.9404   -0.7419    0.5596 C.3       1 ACP         0.0975
     18 O3'         2.7418   -0.8086    1.7389 O.3       1 ACP        -0.5957
     19 C2'         0.7477    0.1630    0.7858 C.3       1 ACP         0.1195
     20 O2'         0.1373   -0.0577    2.0407 O.3       1 ACP        -0.5845
     21 C1'         1.3733    1.5427    0.6747 C.3       1 ACP         0.4064
     22 N9          0.4520    2.5240    0.1767 N.pl3     1 ACP        -0.5630
     23 C8         -0.6854    2.9365    0.7168 C.ar      1 ACP         0.2808
     24 N7         -1.3118    3.8692    0.0018 N.pl3     1 ACP        -0.5040
     25 C5         -0.5159    4.0659   -1.0727 C.ar      1 ACP        -0.2807
     26 C6         -0.6068    4.8856   -2.1589 C.ar      1 ACP         0.7712
     27 N6         -1.7186    5.7437   -2.2844 N.pl3     1 ACP        -0.9461
     28 N1          0.3541    4.8807   -3.1087 N.ar      1 ACP        -0.7457
     29 C2          1.3913    4.0207   -2.9071 C.ar      1 ACP         0.7201
     30 N3          1.5770    3.1707   -1.8715 N.ar      1 ACP        -0.6849
     31 C4          0.5883    3.2318   -0.9747 C.ar      1 ACP         0.6369
     32 HOG2       -2.4073   -2.8250   -7.3156 H         1 ACP         0.4781
     33 HOG3        0.2131   -3.0317   -5.6114 H         1 ACP         0.4781
     34 H3B1       -1.1932    0.5528   -5.9405 H         1 ACP         0.1236
     35 H3B2       -0.7241   -0.6886   -4.7830 H         1 ACP         0.1236
     36 HOA2        3.7129   -2.8761   -4.5238 H         1 ACP         0.4716
     37 H5'1        1.3494    0.2322   -2.1552 H         1 ACP         0.0529
     38 H5'2        2.1260   -1.3686   -2.0435 H         1 ACP         0.0529
     39 H4'         3.8049   -0.1388   -0.4009 H         1 ACP         0.1213
     40 H3'         1.6783   -1.7629    0.2715 H         1 ACP         0.0524
     41 HO3'        3.5554   -1.2733    1.4914 H         1 ACP         0.4707
     42 H2'        -0.0011    0.0027    0.0003 H         1 ACP         0.0774
     43 HO2'       -0.1563   -0.9855    2.0596 H         1 ACP         0.4561
     44 H1'         1.7826    1.9024    1.6451 H         1 ACP         0.1559
     45 H8         -1.0749    2.5601    1.6468 H         1 ACP         0.2754
     46 HN61       -2.4460    5.7038   -1.5992 H         1 ACP         0.4584
     47 HN62       -1.8079    6.3099   -3.1040 H         1 ACP         0.4584
     48 H2          2.1601    4.0194   -3.6712 H         1 ACP         0.0892
     49 H49        -2.1877    4.3195    0.2279 H         1 ACP         0.5039
@<TRIPOS>BOND
     1    1    2 2
     2    1    3 1
     3    1    4 1
     4    1    8 1
     5    3   32 1
     6    4   33 1
     7    5    6 2
     8    5    7 1
     9    5    8 1
    10    5   12 1
    11    8   34 1
    12    8   35 1
    13    9   10 2
    14    9   11 1
    15    9   12 1
    16    9   13 1
    17   11   36 1
    18   13   14 1
    19   14   15 1
    20   14   37 1
    21   14   38 1
    22   15   16 1
    23   15   17 1
    24   15   39 1
    25   16   21 1
    26   17   18 1
    27   17   19 1
    28   17   40 1
    29   18   41 1
    30   19   20 1
    31   19   21 1
    32   19   42 1
    33   20   43 1
    34   21   22 1
    35   21   44 1
    36   22   23 ar
    37   22   31 ar
    38   23   24 ar
    39   23   45 1
    40   24   25 ar
    41   24   49 1
    42   25   26 ar
    43   25   31 ar
    44   26   27 1
    45   26   28 ar
    46   27   46 1
    47   27   47 1
    48   28   29 ar
    49   29   30 ar
    50   29   48 1
    51   30   31 ar
@<TRIPOS>SUBSTRUCTURE
     1 ACP         1 GROUP 0 A     ****
@<TRIPOS>MOLECULE
[[5-(6-amino-7,8-dihydropurin-8-ylium-9-yl)-3,4-dihydroxy-tetrahydrofuran-2-yl]methoxy-hydroxy-phosphoryl]oxy-(phosphonomethyl)phosphinate
   49    51     1     0     0
SMALL
USER_CHARGES

@<TRIPOS>ATOM
      1 PG         -1.5775    0.8796   -3.8387 P.3       1 ACP         1.6362
      2 O1G        -1.1554   -0.5560   -3.9300 O.2       1 ACP        -0.8691
      3 O2G        -3.0877    1.1924   -4.3198 O.3       1 ACP        -0.8016
      4 O3G        -1.5058    1.5307   -2.3620 O.3       1 ACP        -0.8016
      5 PB          1.2398    2.2168   -4.5856 P.3       1 ACP         1.4874
      6 O1B         1.4460    2.6955   -3.1672 O.co2     1 ACP        -0.8240
      7 O2B         1.7722    2.9771   -5.7780 O.co2     1 ACP        -0.8240
      8 C3B        -0.5816    2.0121   -4.8348 C.3       1 ACP        -0.6510
      9 PA          3.0853   -0.0761   -4.4159 P.3       1 ACP         1.7966
     10 O1A         4.2171    0.4133   -5.2721 O.2       1 ACP        -0.8436
     11 O2A         2.7514   -1.6500   -4.5859 O.3       1 ACP        -0.8190
     12 O3A         1.6668    0.6474   -4.6987 O.3       1 ACP        -0.7947
     13 O5'         3.2874    0.1331   -2.8242 O.3       1 ACP        -0.5846
     14 C5'         2.2816   -0.2918   -1.9206 C.3       1 ACP         0.2005
     15 C4'         2.7248    0.0226   -0.4980 C.3       1 ACP         0.0711
     16 O4'         2.4697    1.4219   -0.2462 O.3       1 ACP        -0.4064
     17 C3'         1.9404   -0.7419    0.5596 C.3       1 ACP         0.0975
     18 O3'         2.7418   -0.8086    1.7389 O.3       1 ACP        -0.5957
     19 C2'         0.7477    0.1630    0.7858 C.3       1 ACP         0.1195
     20 O2'         0.1373   -0.0577    2.0407 O.3       1 ACP        -0.5845
     21 C1'         1.3733    1.5427    0.6747 C.3       1 ACP         0.4064
     22 N9          0.4520    2.5240    0.1767 N.pl3     1 ACP        -0.5630
     23 C8         -0.8602    2.5861    0.3496 C.ar      1 ACP         0.2808
     24 N7         -1.4308    3.6326   -0.2443 N.pl3     1 ACP        -0.5040
     25 C5         -0.4080    4.2856   -0.8394 C.ar      1 ACP        -0.2807
     26 C6         -0.3432    5.4196   -1.5943 C.ar      1 ACP         0.7712
     27 N6         -1.5276    6.1333   -1.8702 N.pl3     1 ACP        -0.9461
     28 N1          0.8395    5.8603   -2.0764 N.ar      1 ACP        -0.7457
     29 C2          1.9319    5.1095   -1.7617 C.ar      1 ACP         0.7201
     30 N3          1.9773    3.9761   -1.0249 N.ar      1 ACP        -0.6849
     31 C4          0.7724    3.6031   -0.5836 C.ar      1 ACP         0.6369
     32 HOG2       -3.4172    2.1156   -4.2816 H         1 ACP         0.4781
     33 HOG3       -2.0420    1.1356   -1.6418 H         1 ACP         0.4781
     34 H3B1       -0.7111    1.7171   -5.8822 H         1 ACP         0.1236
     35 H3B2       -1.0153    3.0132   -4.7296 H         1 ACP         0.1236
     36 HOA2        3.4497   -2.3077   -4.3811 H         1 ACP         0.4716
     37 H5'1        1.3494    0.2322   -2.1552 H         1 ACP         0.0529
     38 H5'2        2.1260   -1.3686   -2.0435 H         1 ACP         0.0529
     39 H4'         3.8049   -0.1388   -0.4009 H         1 ACP         0.1213
     40 H3'         1.6783   -1.7629    0.2715 H         1 ACP         0.0524
     41 HO3'        2.2232   -1.2979    2.3953 H         1 ACP         0.4707
     42 H2'        -0.0011    0.0027    0.0003 H         1 ACP         0.0774
     43 HO2'       -0.1563   -0.9855    2.0596 H         1 ACP         0.4561
     44 H1'         1.7826    1.9024    1.6451 H         1 ACP         0.1559
     45 H8         -1.4217    1.8638    0.9164 H         1 ACP         0.2754
     46 HN61       -2.4023    5.7711   -1.5477 H         1 ACP         0.4584
     47 HN62       -1.4856    6.9379   -2.4627 H         1 ACP         0.4584
     48 H2          2.8789    5.4660   -2.1503 H         1 ACP         0.0892
     49 H49        -2.4129    3.8706   -0.2402 H         1 ACP         0.5039
@<TRIPOS>BOND
     1    1    2 2
     2    1    3 1
     3    1    4 1
     4    1    8 1
     5    3   32 1
     6    4   33 1
     7    5    6 2
     8    5    7 1
     9    5    8 1
    10    5   12 1
    11    8   34 1
    12    8   35 1
    13    9   10 2
    14    9   11 1
    15    9   12 1
    16    9   13 1
    17   11   36 1
    18   13   14 1
    19   14   15 1
    20   14   37 1
    21   14   38 1
    22   15   16 1
    23   15   17 1
    24   15   39 1
    25   16   21 1
    26   17   18 1
    27   17   19 1
    28   17   40 1
    29   18   41 1
    30   19   20 1
    31   19   21 1
    32   19   42 1
    33   20   43 1
    34   21   22 1
    35   21   44 1
    36   22   23 ar
    37   22   31 ar
    38   23   24 ar
    39   23   45 1
    40   24   25 ar
    41   24   49 1
    42   25   26 ar
    43   25   31 ar
    44   26   27 1
    45   26   28 ar
    46   27   46 1
    47   27   47 1
    48   28   29 ar
    49   29   30 ar
    50   29   48 1
    51   30   31 ar
@<TRIPOS>SUBSTRUCTURE
     1 ACP         1 GROUP 0 A     ****
@<TRIPOS>MOLECULE
[[5-(6-amino-7,8-dihydropurin-8-ylium-9-yl)-3,4-dihydroxy-tetrahydrofuran-2-yl]methoxy-hydroxy-phosphoryl]oxy-(phosphonomethyl)phosphinate
   49    51     1     0     0
SMALL
USER_CHARGES

@<TRIPOS>ATOM
      1 PG          6.0636    1.6907   -4.3567 P.3       1 ACP         1.6362
      2 O1G         5.1530    1.8136   -3.1722 O.2       1 ACP        -0.8691
      3 O2G         5.5871    2.4774   -5.6849 O.3       1 ACP        -0.8016
      4 O3G         7.5749    2.2131   -4.1264 O.3       1 ACP        -0.8016
      5 PB          4.8982   -1.0581   -5.5267 P.3       1 ACP         1.4874
      6 O1B         5.4808   -2.3930   -5.9293 O.co2     1 ACP        -0.8240
      7 O2B         4.0737   -0.2196   -6.4757 O.co2     1 ACP        -0.8240
      8 C3B         6.3000   -0.0035   -4.9402 C.3       1 ACP        -0.6510
      9 PA          2.8566   -2.1440   -3.6977 P.3       1 ACP         1.7966
     10 O1A         3.0940   -3.6176   -3.8586 O.2       1 ACP        -0.8436
     11 O2A         1.6428   -1.5611   -4.5945 O.3       1 ACP        -0.8190
     12 O3A         4.1138   -1.2120   -4.1056 O.3       1 ACP        -0.7947
     13 O5'         2.5233   -1.6622   -2.1894 O.3       1 ACP        -0.5846
     14 C5'         2.2816   -0.2918   -1.9206 C.3       1 ACP         0.2005
     15 C4'         2.7248    0.0226   -0.4980 C.3       1 ACP         0.0711
     16 O4'         2.4697    1.4219   -0.2462 O.3       1 ACP        -0.4064
     17 C3'         1.9404   -0.7419    0.5596 C.3       1 ACP         0.0975
     18 O3'         2.7418   -0.8086    1.7389 O.3       1 ACP        -0.5957
     19 C2'         0.7477    0.1630    0.7858 C.3       1 ACP         0.1195
     20 O2'         0.1373   -0.0577    2.0407 O.3       1 ACP        -0.5845
     21 C1'         1.3733    1.5427    0.6747 C.3       1 ACP         0.4064
     22 N9          0.4520    2.5240    0.1767 N.pl3     1 ACP        -0.5630
     23 C8          0.0623    3.6542    0.7479 C.ar      1 ACP         0.2808
     24 N7         -0.8074    4.3516    0.0193 N.pl3     1 ACP        -0.5040
     25 C5         -0.9855    3.6123   -1.0979 C.ar      1 ACP        -0.2807
     26 C6         -1.7474    3.7860   -2.2156 C.ar      1 ACP         0.7712
     27 N6         -2.5511    4.9389   -2.3303 N.pl3     1 ACP        -0.9461
     28 N1         -1.7375    2.8675   -3.2064 N.ar      1 ACP        -0.7457
     29 C2         -0.9330    1.7853   -3.0121 C.ar      1 ACP         0.7201
     30 N3         -0.1423    1.5179   -1.9478 N.ar      1 ACP        -0.6849
     31 C4         -0.2044    2.4690   -1.0113 C.ar      1 ACP         0.6369
     32 HOG2        6.1450    2.4317   -6.4904 H         1 ACP         0.4781
     33 HOG3        7.7210    3.1511   -3.8790 H         1 ACP         0.4781
     34 H3B1        7.0128    0.0398   -5.7714 H         1 ACP         0.1236
     35 H3B2        6.7844   -0.5660   -4.1339 H         1 ACP         0.1236
     36 HOA2        1.6914   -1.6457   -5.5706 H         1 ACP         0.4716
     37 H5'1        2.8428    0.3150   -2.6387 H         1 ACP         0.0529
     38 H5'2        1.2124   -0.0896   -2.0417 H         1 ACP         0.0529
     39 H4'         3.8049   -0.1388   -0.4009 H         1 ACP         0.1213
     40 H3'         1.6783   -1.7629    0.2715 H         1 ACP         0.0524
     41 HO3'        2.2232   -1.2979    2.3953 H         1 ACP         0.4707
     42 H2'        -0.0011    0.0027    0.0003 H         1 ACP         0.0774
     43 HO2'       -0.1563   -0.9855    2.0596 H         1 ACP         0.4561
     44 H1'         1.7826    1.9024    1.6451 H         1 ACP         0.1559
     45 H8          0.4111    3.9873    1.7100 H         1 ACP         0.2754
     46 HN61       -2.5859    5.5874   -1.5698 H         1 ACP         0.4584
     47 HN62       -3.1449    5.0423   -3.1284 H         1 ACP         0.4584
     48 H2         -0.9279    1.0504   -3.8088 H         1 ACP         0.0892
     49 H49        -1.2303    5.2364    0.2633 H         1 ACP         0.5039
@<TRIPOS>BOND
     1    1    2 2
     2    1    3 1
     3    1    4 1
     4    1    8 1
     5    3   32 1
     6    4   33 1
     7    5    6 2
     8    5    7 1
     9    5    8 1
    10    5   12 1
    11    8   34 1
    12    8   35 1
    13    9   10 2
    14    9   11 1
    15    9   12 1
    16    9   13 1
    17   11   36 1
    18   13   14 1
    19   14   15 1
    20   14   37 1
    21   14   38 1
    22   15   16 1
    23   15   17 1
    24   15   39 1
    25   16   21 1
    26   17   18 1
    27   17   19 1
    28   17   40 1
    29   18   41 1
    30   19   20 1
    31   19   21 1
    32   19   42 1
    33   20   43 1
    34   21   22 1
    35   21   44 1
    36   22   23 ar
    37   22   31 ar
    38   23   24 ar
    39   23   45 1
    40   24   25 ar
    41   24   49 1
    42   25   26 ar
    43   25   31 ar
    44   26   27 1
    45   26   28 ar
    46   27   46 1
    47   27   47 1
    48   28   29 ar
    49   29   30 ar
    50   29   48 1
    51   30   31 ar
@<TRIPOS>SUBSTRUCTURE
     1 ACP         1 GROUP 0 A     ****
@<TRIPOS>MOLECULE
[[5-(6-amino-7,8-dihydropurin-8-ylium-9-yl)-3,4-dihydroxy-tetrahydrofuran-2-yl]methoxy-hydroxy-phosphoryl]oxy-(phosphonomethyl)phosphinate
   49    51     1     0     0
SMALL
USER_CHARGES

@<TRIPOS>ATOM
      1 PG         -1.3966   -1.6692   -4.8773 P.3       1 ACP         1.6362
      2 O1G        -0.9972   -1.3345   -3.4717 O.2       1 ACP        -0.8691
      3 O2G        -1.3073   -3.2333   -5.2720 O.3       1 ACP        -0.8016
      4 O3G        -2.9047   -1.2590   -5.2859 O.3       1 ACP        -0.8016
      5 PB          1.4325   -1.1192   -6.2832 P.3       1 ACP         1.4874
      6 O1B         1.9145   -0.2900   -7.4509 O.co2     1 ACP        -0.8240
      7 O2B         1.6841   -2.6065   -6.1927 O.co2     1 ACP        -0.8240
      8 C3B        -0.3943   -0.8630   -6.1469 C.3       1 ACP        -0.6510
      9 PA          3.3384   -0.0297   -4.3151 P.3       1 ACP         1.7966
     10 O1A         4.1258    0.9106   -5.1809 O.2       1 ACP        -0.8436
     11 O2A         4.0360   -1.4716   -4.0883 O.3       1 ACP        -0.8190
     12 O3A         1.8718   -0.4013   -4.8868 O.3       1 ACP        -0.7947
     13 O5'         3.0190    0.5130   -2.8246 O.3       1 ACP        -0.5846
     14 C5'         2.2816   -0.2918   -1.9206 C.3       1 ACP         0.2005
     15 C4'         2.7248    0.0226   -0.4980 C.3       1 ACP         0.0711
     16 O4'         2.4697    1.4219   -0.2462 O.3       1 ACP        -0.4064
     17 C3'         1.9404   -0.7419    0.5596 C.3       1 ACP         0.0975
     18 O3'         2.7418   -0.8086    1.7389 O.3       1 ACP        -0.5957
     19 C2'         0.7477    0.1630    0.7858 C.3       1 ACP         0.1195
     20 O2'         0.1373   -0.0577    2.0407 O.3       1 ACP        -0.5845
     21 C1'         1.3733    1.5427    0.6747 C.3       1 ACP         0.4064
     22 N9          0.4520    2.5240    0.1767 N.pl3     1 ACP        -0.5630
     23 C8          0.0623    3.6542    0.7479 C.ar      1 ACP         0.2808
     24 N7         -0.8074    4.3516    0.0193 N.pl3     1 ACP        -0.5040
     25 C5         -0.9855    3.6123   -1.0979 C.ar      1 ACP        -0.2807
     26 C6         -1.7474    3.7860   -2.2156 C.ar      1 ACP         0.7712
     27 N6         -2.5511    4.9389   -2.3303 N.pl3     1 ACP        -0.9461
     28 N1         -1.7375    2.8675   -3.2064 N.ar      1 ACP        -0.7457
     29 C2         -0.9330    1.7853   -3.0121 C.ar      1 ACP         0.7201
     30 N3         -0.1423    1.5179   -1.9478 N.ar      1 ACP        -0.6849
     31 C4         -0.2044    2.4690   -1.0113 C.ar      1 ACP         0.6369
     32 HOG2       -1.5569   -3.5096   -6.1795 H         1 ACP         0.4781
     33 HOG3       -3.6546   -1.6452   -4.7851 H         1 ACP         0.4781
     34 H3B1       -0.8123   -1.1525   -7.1177 H         1 ACP         0.1236
     35 H3B2       -0.5409    0.2184   -6.0463 H         1 ACP         0.1236
     36 HOA2        4.9197   -1.5094   -3.6642 H         1 ACP         0.4716
     37 H5'1        1.2149   -0.0786   -2.0446 H         1 ACP         0.0529
     38 H5'2        2.4640   -1.3459   -2.1539 H         1 ACP         0.0529
     39 H4'         3.8049   -0.1388   -0.4009 H         1 ACP         0.1213
     40 H3'         1.6783   -1.7629    0.2715 H         1 ACP         0.0524
     41 HO3'        2.2232   -1.2979    2.3953 H         1 ACP         0.4707
     42 H2'        -0.0011    0.0027    0.0003 H         1 ACP         0.0774
     43 HO2'       -0.6141    0.5574    2.1082 H         1 ACP         0.4561
     44 H1'         1.7826    1.9024    1.6451 H         1 ACP         0.1559
     45 H8          0.4111    3.9873    1.7100 H         1 ACP         0.2754
     46 HN61       -2.5859    5.5874   -1.5698 H         1 ACP         0.4584
     47 HN62       -3.1449    5.0423   -3.1284 H         1 ACP         0.4584
     48 H2         -0.9279    1.0504   -3.8088 H         1 ACP         0.0892
     49 H49        -1.2303    5.2364    0.2633 H         1 ACP         0.5039
@<TRIPOS>BOND
     1    1    2 2
     2    1    3 1
     3    1    4 1
     4    1    8 1
     5    3   32 1
     6    4   33 1
     7    5    6 2
     8    5    7 1
     9    5    8 1
    10    5   12 1
    11    8   34 1
    12    8   35 1
    13    9   10 2
    14    9   11 1
    15    9   12 1
    16    9   13 1
    17   11   36 1
    18   13   14 1
    19   14   15 1
    20   14   37 1
    21   14   38 1
    22   15   16 1
    23   15   17 1
    24   15   39 1
    25   16   21 1
    26   17   18 1
    27   17   19 1
    28   17   40 1
    29   18   41 1
    30   19   20 1
    31   19   21 1
    32   19   42 1
    33   20   43 1
    34   21   22 1
    35   21   44 1
    36   22   23 ar
    37   22   31 ar
    38   23   24 ar
    39   23   45 1
    40   24   25 ar
    41   24   49 1
    42   25   26 ar
    43   25   31 ar
    44   26   27 1
    45   26   28 ar
    46   27   46 1
    47   27   47 1
    48   28   29 ar
    49   29   30 ar
    50   29   48 1
    51   30   31 ar
@<TRIPOS>SUBSTRUCTURE
     1 ACP         1 GROUP 0 A     ****
@<TRIPOS>MOLECULE
[[5-(6-amino-7,8-dihydropurin-8-ylium-9-yl)-3,4-dihydroxy-tetrahydrofuran-2-yl]methoxy-hydroxy-phosphoryl]oxy-(phosphonomethyl)phosphinate
   49    51     1     0     0
SMALL
USER_CHARGES

@<TRIPOS>ATOM
      1 PG          7.3458   -0.4674   -3.5410 P.3       1 ACP         1.6362
      2 O1G         8.0743   -1.7654   -3.7192 O.2       1 ACP        -0.8691
      3 O2G         6.3327   -0.4053   -2.2840 O.3       1 ACP        -0.8016
      4 O3G         8.2841    0.8320   -3.3382 O.3       1 ACP        -0.8016
      5 PB          4.8982   -1.0581   -5.5267 P.3       1 ACP         1.4874
      6 O1B         5.4808   -2.3930   -5.9293 O.co2     1 ACP        -0.8240
      7 O2B         4.0737   -0.2196   -6.4757 O.co2     1 ACP        -0.8240
      8 C3B         6.3000   -0.0035   -4.9402 C.3       1 ACP        -0.6510
      9 PA          2.8566   -2.1440   -3.6977 P.3       1 ACP         1.7966
     10 O1A         3.0940   -3.6176   -3.8586 O.2       1 ACP        -0.8436
     11 O2A         1.6428   -1.5611   -4.5945 O.3       1 ACP        -0.8190
     12 O3A         4.1138   -1.2120   -4.1056 O.3       1 ACP        -0.7947
     13 O5'         2.5233   -1.6622   -2.1894 O.3       1 ACP        -0.5846
     14 C5'         2.2816   -0.2918   -1.9206 C.3       1 ACP         0.2005
     15 C4'         2.7248    0.0226   -0.4980 C.3       1 ACP         0.0711
     16 O4'         2.4697    1.4219   -0.2462 O.3       1 ACP        -0.4064
     17 C3'         1.9404   -0.7419    0.5596 C.3       1 ACP         0.0975
     18 O3'         2.7418   -0.8086    1.7389 O.3       1 ACP        -0.5957
     19 C2'         0.7477    0.1630    0.7858 C.3       1 ACP         0.1195
     20 O2'         0.1373   -0.0577    2.0407 O.3       1 ACP        -0.5845
     21 C1'         1.3733    1.5427    0.6747 C.3       1 ACP         0.4064
     22 N9          0.4520    2.5240    0.1767 N.pl3     1 ACP        -0.5630
     23 C8          0.0623    3.6542    0.7479 C.ar      1 ACP         0.2808
     24 N7         -0.8074    4.3516    0.0193 N.pl3     1 ACP        -0.5040
     25 C5         -0.9855    3.6123   -1.0979 C.ar      1 ACP        -0.2807
     26 C6         -1.7474    3.7860   -2.2156 C.ar      1 ACP         0.7712
     27 N6         -2.5511    4.9389   -2.3303 N.pl3     1 ACP        -0.9461
     28 N1         -1.7375    2.8675   -3.2064 N.ar      1 ACP        -0.7457
     29 C2         -0.9330    1.7853   -3.0121 C.ar      1 ACP         0.7201
     30 N3         -0.1423    1.5179   -1.9478 N.ar      1 ACP        -0.6849
     31 C4         -0.2044    2.4690   -1.0113 C.ar      1 ACP         0.6369
     32 HOG2        5.5864   -1.0406   -2.2431 H         1 ACP         0.4781
     33 HOG3        8.8986    0.8599   -2.5741 H         1 ACP         0.4781
     34 H3B1        5.8638    0.9739   -4.7048 H         1 ACP         0.1236
     35 H3B2        6.9538    0.1399   -5.8080 H         1 ACP         0.1236
     36 HOA2        1.6914   -1.6457   -5.5706 H         1 ACP         0.4716
     37 H5'1        2.8428    0.3150   -2.6387 H         1 ACP         0.0529
     38 H5'2        1.2124   -0.0896   -2.0417 H         1 ACP         0.0529
     39 H4'         3.8049   -0.1388   -0.4009 H         1 ACP         0.1213
     40 H3'         1.6783   -1.7629    0.2715 H         1 ACP         0.0524
     41 HO3'        2.2232   -1.2979    2.3953 H         1 ACP         0.4707
     42 H2'        -0.0011    0.0027    0.0003 H         1 ACP         0.0774
     43 HO2'       -0.1563   -0.9855    2.0596 H         1 ACP         0.4561
     44 H1'         1.7826    1.9024    1.6451 H         1 ACP         0.1559
     45 H8          0.4111    3.9873    1.7100 H         1 ACP         0.2754
     46 HN61       -2.5859    5.5874   -1.5698 H         1 ACP         0.4584
     47 HN62       -3.1449    5.0423   -3.1284 H         1 ACP         0.4584
     48 H2         -0.9279    1.0504   -3.8088 H         1 ACP         0.0892
     49 H49        -1.2303    5.2364    0.2633 H         1 ACP         0.5039
@<TRIPOS>BOND
     1    1    2 2
     2    1    3 1
     3    1    4 1
     4    1    8 1
     5    3   32 1
     6    4   33 1
     7    5    6 2
     8    5    7 1
     9    5    8 1
    10    5   12 1
    11    8   34 1
    12    8   35 1
    13    9   10 2
    14    9   11 1
    15    9   12 1
    16    9   13 1
    17   11   36 1
    18   13   14 1
    19   14   15 1
    20   14   37 1
    21   14   38 1
    22   15   16 1
    23   15   17 1
    24   15   39 1
    25   16   21 1
    26   17   18 1
    27   17   19 1
    28   17   40 1
    29   18   41 1
    30   19   20 1
    31   19   21 1
    32   19   42 1
    33   20   43 1
    34   21   22 1
    35   21   44 1
    36   22   23 ar
    37   22   31 ar
    38   23   24 ar
    39   23   45 1
    40   24   25 ar
    41   24   49 1
    42   25   26 ar
    43   25   31 ar
    44   26   27 1
    45   26   28 ar
    46   27   46 1
    47   27   47 1
    48   28   29 ar
    49   29   30 ar
    50   29   48 1
    51   30   31 ar
@<TRIPOS>SUBSTRUCTURE
     1 ACP         1 GROUP 0 A     ****
@<TRIPOS>MOLECULE
[[5-(6-amino-7,8-dihydropurin-8-ylium-9-yl)-3,4-dihydroxy-tetrahydrofuran-2-yl]methoxy-hydroxy-phosphoryl]oxy-(phosphonomethyl)phosphinate
   49    51     1     0     0
SMALL
USER_CHARGES

@<TRIPOS>ATOM
      1 PG          5.3172    1.9214   -4.3355 P.3       1 ACP         1.6362
      2 O1G         5.1660    2.4913   -2.9571 O.2       1 ACP        -0.8691
      3 O2G         3.9366    1.5913   -5.1069 O.3       1 ACP        -0.8016
      4 O3G         6.1269    2.8467   -5.3833 O.3       1 ACP        -0.8016
      5 PB          5.6296   -1.1607   -3.5072 P.3       1 ACP         1.4874
      6 O1B         5.5803   -0.8227   -2.0352 O.co2     1 ACP        -0.8240
      7 O2B         6.4275   -2.3284   -4.0395 O.co2     1 ACP        -0.8240
      8 C3B         6.2124    0.3525   -4.3971 C.3       1 ACP        -0.6510
      9 PA          2.8566   -2.1440   -3.6977 P.3       1 ACP         1.7966
     10 O1A         3.0940   -3.6176   -3.8586 O.2       1 ACP        -0.8436
     11 O2A         1.6428   -1.5611   -4.5945 O.3       1 ACP        -0.8190
     12 O3A         4.1138   -1.2120   -4.1056 O.3       1 ACP        -0.7947
     13 O5'         2.5233   -1.6622   -2.1894 O.3       1 ACP        -0.5846
     14 C5'         2.2816   -0.2918   -1.9206 C.3       1 ACP         0.2005
     15 C4'         2.7248    0.0226   -0.4980 C.3       1 ACP         0.0711
     16 O4'         2.4697    1.4219   -0.2462 O.3       1 ACP        -0.4064
     17 C3'         1.9404   -0.7419    0.5596 C.3       1 ACP         0.0975
     18 O3'         2.7418   -0.8086    1.7389 O.3       1 ACP        -0.5957
     19 C2'         0.7477    0.1630    0.7858 C.3       1 ACP         0.1195
     20 O2'         0.1373   -0.0577    2.0407 O.3       1 ACP        -0.5845
     21 C1'         1.3733    1.5427    0.6747 C.3       1 ACP         0.4064
     22 N9          0.4520    2.5240    0.1767 N.pl3     1 ACP        -0.5630
     23 C8          0.0623    3.6542    0.7479 C.ar      1 ACP         0.2808
     24 N7         -0.8074    4.3516    0.0193 N.pl3     1 ACP        -0.5040
     25 C5         -0.9855    3.6123   -1.0979 C.ar      1 ACP        -0.2807
     26 C6         -1.7474    3.7860   -2.2156 C.ar      1 ACP         0.7712
     27 N6         -2.5511    4.9389   -2.3303 N.pl3     1 ACP        -0.9461
     28 N1         -1.7375    2.8675   -3.2064 N.ar      1 ACP        -0.7457
     29 C2         -0.9330    1.7853   -3.0121 C.ar      1 ACP         0.7201
     30 N3         -0.1423    1.5179   -1.9478 N.ar      1 ACP        -0.6849
     31 C4         -0.2044    2.4690   -1.0113 C.ar      1 ACP         0.6369
     32 HOG2        3.3127    0.9467   -4.7102 H         1 ACP         0.4781
     33 HOG3        5.7833    3.7416   -5.5914 H         1 ACP         0.4781
     34 H3B1        6.2916    0.0693   -5.4528 H         1 ACP         0.1236
     35 H3B2        7.2315    0.5393   -4.0399 H         1 ACP         0.1236
     36 HOA2        1.6914   -1.6457   -5.5706 H         1 ACP         0.4716
     37 H5'1        2.8428    0.3150   -2.6387 H         1 ACP         0.0529
     38 H5'2        1.2124   -0.0896   -2.0417 H         1 ACP         0.0529
     39 H4'         3.8049   -0.1388   -0.4009 H         1 ACP         0.1213
     40 H3'         1.6783   -1.7629    0.2715 H         1 ACP         0.0524
     41 HO3'        3.5554   -1.2733    1.4914 H         1 ACP         0.4707
     42 H2'        -0.0011    0.0027    0.0003 H         1 ACP         0.0774
     43 HO2'       -0.1563   -0.9855    2.0596 H         1 ACP         0.4561
     44 H1'         1.7826    1.9024    1.6451 H         1 ACP         0.1559
     45 H8          0.4111    3.9873    1.7100 H         1 ACP         0.2754
     46 HN61       -2.5859    5.5874   -1.5698 H         1 ACP         0.4584
     47 HN62       -3.1449    5.0423   -3.1284 H         1 ACP         0.4584
     48 H2         -0.9279    1.0504   -3.8088 H         1 ACP         0.0892
     49 H49        -1.2303    5.2364    0.2633 H         1 ACP         0.5039
@<TRIPOS>BOND
     1    1    2 2
     2    1    3 1
     3    1    4 1
     4    1    8 1
     5    3   32 1
     6    4   33 1
     7    5    6 2
     8    5    7 1
     9    5    8 1
    10    5   12 1
    11    8   34 1
    12    8   35 1
    13    9   10 2
    14    9   11 1
    15    9   12 1
    16    9   13 1
    17   11   36 1
    18   13   14 1
    19   14   15 1
    20   14   37 1
    21   14   38 1
    22   15   16 1
    23   15   17 1
    24   15   39 1
    25   16   21 1
    26   17   18 1
    27   17   19 1
    28   17   40 1
    29   18   41 1
    30   19   20 1
    31   19   21 1
    32   19   42 1
    33   20   43 1
    34   21   22 1
    35   21   44 1
    36   22   23 ar
    37   22   31 ar
    38   23   24 ar
    39   23   45 1
    40   24   25 ar
    41   24   49 1
    42   25   26 ar
    43   25   31 ar
    44   26   27 1
    45   26   28 ar
    46   27   46 1
    47   27   47 1
    48   28   29 ar
    49   29   30 ar
    50   29   48 1
    51   30   31 ar
@<TRIPOS>SUBSTRUCTURE
     1 ACP         1 GROUP 0 A     ****
@<TRIPOS>MOLECULE
[[5-(6-amino-7,8-dihydropurin-8-ylium-9-yl)-3,4-dihydroxy-tetrahydrofuran-2-yl]methoxy-hydroxy-phosphoryl]oxy-(phosphonomethyl)phosphinate
   49    51     1     0     0
SMALL
USER_CHARGES

@<TRIPOS>ATOM
      1 PG          6.4218    0.4044   -6.1916 P.3       1 ACP         1.6362
      2 O1G         6.9029    1.7228   -6.7184 O.2       1 ACP        -0.8691
      3 O2G         4.9855   -0.0843   -6.7470 O.3       1 ACP        -0.8016
      4 O3G         7.3913   -0.8544   -6.4838 O.3       1 ACP        -0.8016
      5 PB          5.6296   -1.1607   -3.5072 P.3       1 ACP         1.4874
      6 O1B         5.5803   -0.8227   -2.0352 O.co2     1 ACP        -0.8240
      7 O2B         6.4275   -2.3284   -4.0395 O.co2     1 ACP        -0.8240
      8 C3B         6.2124    0.3525   -4.3971 C.3       1 ACP        -0.6510
      9 PA          2.8566   -2.1440   -3.6977 P.3       1 ACP         1.7966
     10 O1A         3.0940   -3.6176   -3.8586 O.2       1 ACP        -0.8436
     11 O2A         1.6428   -1.5611   -4.5945 O.3       1 ACP        -0.8190
     12 O3A         4.1138   -1.2120   -4.1056 O.3       1 ACP        -0.7947
     13 O5'         2.5233   -1.6622   -2.1894 O.3       1 ACP        -0.5846
     14 C5'         2.2816   -0.2918   -1.9206 C.3       1 ACP         0.2005
     15 C4'         2.7248    0.0226   -0.4980 C.3       1 ACP         0.0711
     16 O4'         2.4697    1.4219   -0.2462 O.3       1 ACP        -0.4064
     17 C3'         1.9404   -0.7419    0.5596 C.3       1 ACP         0.0975
     18 O3'         2.7418   -0.8086    1.7389 O.3       1 ACP        -0.5957
     19 C2'         0.7477    0.1630    0.7858 C.3       1 ACP         0.1195
     20 O2'         0.1373   -0.0577    2.0407 O.3       1 ACP        -0.5845
     21 C1'         1.3733    1.5427    0.6747 C.3       1 ACP         0.4064
     22 N9          0.4520    2.5240    0.1767 N.pl3     1 ACP        -0.5630
     23 C8          0.0623    3.6542    0.7479 C.ar      1 ACP         0.2808
     24 N7         -0.8074    4.3516    0.0193 N.pl3     1 ACP        -0.5040
     25 C5         -0.9855    3.6123   -1.0979 C.ar      1 ACP        -0.2807
     26 C6         -1.7474    3.7860   -2.2156 C.ar      1 ACP         0.7712
     27 N6         -2.5511    4.9389   -2.3303 N.pl3     1 ACP        -0.9461
     28 N1         -1.7375    2.8675   -3.2064 N.ar      1 ACP        -0.7457
     29 C2         -0.9330    1.7853   -3.0121 C.ar      1 ACP         0.7201
     30 N3         -0.1423    1.5179   -1.9478 N.ar      1 ACP        -0.6849
     31 C4         -0.2044    2.4690   -1.0113 C.ar      1 ACP         0.6369
     32 HOG2        4.6217   -0.9404   -6.4356 H         1 ACP         0.4781
     33 HOG3        7.5951   -1.0916   -7.4136 H         1 ACP         0.4781
     34 H3B1        7.1810    0.6087   -3.9533 H         1 ACP         0.1236
     35 H3B2        5.5146    1.1518   -4.1227 H         1 ACP         0.1236
     36 HOA2        1.6914   -1.6457   -5.5706 H         1 ACP         0.4716
     37 H5'1        2.8428    0.3150   -2.6387 H         1 ACP         0.0529
     38 H5'2        1.2124   -0.0896   -2.0417 H         1 ACP         0.0529
     39 H4'         3.8049   -0.1388   -0.4009 H         1 ACP         0.1213
     40 H3'         1.6783   -1.7629    0.2715 H         1 ACP         0.0524
     41 HO3'        2.2232   -1.2979    2.3953 H         1 ACP         0.4707
     42 H2'        -0.0011    0.0027    0.0003 H         1 ACP         0.0774
     43 HO2'       -0.1563   -0.9855    2.0596 H         1 ACP         0.4561
     44 H1'         1.7826    1.9024    1.6451 H         1 ACP         0.1559
     45 H8          0.4111    3.9873    1.7100 H         1 ACP         0.2754
     46 HN61       -2.5859    5.5874   -1.5698 H         1 ACP         0.4584
     47 HN62       -3.1449    5.0423   -3.1284 H         1 ACP         0.4584
     48 H2         -0.9279    1.0504   -3.8088 H         1 ACP         0.0892
     49 H49        -1.2303    5.2364    0.2633 H         1 ACP         0.5039
@<TRIPOS>BOND
     1    1    2 2
     2    1    3 1
     3    1    4 1
     4    1    8 1
     5    3   32 1
     6    4   33 1
     7    5    6 2
     8    5    7 1
     9    5    8 1
    10    5   12 1
    11    8   34 1
    12    8   35 1
    13    9   10 2
    14    9   11 1
    15    9   12 1
    16    9   13 1
    17   11   36 1
    18   13   14 1
    19   14   15 1
    20   14   37 1
    21   14   38 1
    22   15   16 1
    23   15   17 1
    24   15   39 1
    25   16   21 1
    26   17   18 1
    27   17   19 1
    28   17   40 1
    29   18   41 1
    30   19   20 1
    31   19   21 1
    32   19   42 1
    33   20   43 1
    34   21   22 1
    35   21   44 1
    36   22   23 ar
    37   22   31 ar
    38   23   24 ar
    39   23   45 1
    40   24   25 ar
    41   24   49 1
    42   25   26 ar
    43   25   31 ar
    44   26   27 1
    45   26   28 ar
    46   27   46 1
    47   27   47 1
    48   28   29 ar
    49   29   30 ar
    50   29   48 1
    51   30   31 ar
@<TRIPOS>SUBSTRUCTURE
     1 ACP         1 GROUP 0 A     ****
@<TRIPOS>MOLECULE
[[5-(6-amino-7,8-dihydropurin-8-ylium-9-yl)-3,4-dihydroxy-tetrahydrofuran-2-yl]methoxy-hydroxy-phosphoryl]oxy-(phosphonomethyl)phosphinate
   49    51     1     0     0
SMALL
USER_CHARGES

@<TRIPOS>ATOM
      1 PG          2.5477   -4.4348   -3.5667 P.3       1 ACP         1.6362
      2 O1G         3.4356   -4.0796   -2.4122 O.2       1 ACP        -0.8691
      3 O2G         2.4996   -6.0034   -3.9502 O.3       1 ACP        -0.8016
      4 O3G         0.9915   -4.0377   -3.3922 O.3       1 ACP        -0.8016
      5 PB          3.0413   -1.8022   -5.3298 P.3       1 ACP         1.4874
      6 O1B         1.6477   -1.2904   -5.0475 O.co2     1 ACP        -0.8240
      7 O2B         3.7589   -1.5116   -6.6275 O.co2     1 ACP        -0.8240
      8 C3B         3.0012   -3.6402   -5.1253 C.3       1 ACP        -0.6510
      9 PA          4.4219   -0.0239   -3.4261 P.3       1 ACP         1.7966
     10 O1A         5.1111    0.9158   -4.3724 O.2       1 ACP        -0.8436
     11 O2A         5.2994   -0.4279   -2.1284 O.3       1 ACP        -0.8190
     12 O3A         4.0165   -1.4504   -4.0715 O.3       1 ACP        -0.7947
     13 O5'         3.0190    0.5130   -2.8246 O.3       1 ACP        -0.5846
     14 C5'         2.2816   -0.2918   -1.9206 C.3       1 ACP         0.2005
     15 C4'         2.7248    0.0226   -0.4980 C.3       1 ACP         0.0711
     16 O4'         2.4697    1.4219   -0.2462 O.3       1 ACP        -0.4064
     17 C3'         1.9404   -0.7419    0.5596 C.3       1 ACP         0.0975
     18 O3'         2.7418   -0.8086    1.7389 O.3       1 ACP        -0.5957
     19 C2'         0.7477    0.1630    0.7858 C.3       1 ACP         0.1195
     20 O2'         0.1373   -0.0577    2.0407 O.3       1 ACP        -0.5845
     21 C1'         1.3733    1.5427    0.6747 C.3       1 ACP         0.4064
     22 N9          0.4520    2.5240    0.1767 N.pl3     1 ACP        -0.5630
     23 C8          0.0623    3.6542    0.7479 C.ar      1 ACP         0.2808
     24 N7         -0.8074    4.3516    0.0193 N.pl3     1 ACP        -0.5040
     25 C5         -0.9855    3.6123   -1.0979 C.ar      1 ACP        -0.2807
     26 C6         -1.7474    3.7860   -2.2156 C.ar      1 ACP         0.7712
     27 N6         -2.5511    4.9389   -2.3303 N.pl3     1 ACP        -0.9461
     28 N1         -1.7375    2.8675   -3.2064 N.ar      1 ACP        -0.7457
     29 C2         -0.9330    1.7853   -3.0121 C.ar      1 ACP         0.7201
     30 N3         -0.1423    1.5179   -1.9478 N.ar      1 ACP        -0.6849
     31 C4         -0.2044    2.4690   -1.0113 C.ar      1 ACP         0.6369
     32 HOG2        1.9346   -6.2929   -4.6980 H         1 ACP         0.4781
     33 HOG3        0.4839   -4.4212   -2.6455 H         1 ACP         0.4781
     34 H3B1        4.0050   -3.9942   -5.3860 H         1 ACP         0.1236
     35 H3B2        2.3202   -4.0153   -5.8978 H         1 ACP         0.1236
     36 HOA2        6.1601   -0.8797   -2.2600 H         1 ACP         0.4716
     37 H5'1        1.2149   -0.0786   -2.0446 H         1 ACP         0.0529
     38 H5'2        2.4640   -1.3459   -2.1539 H         1 ACP         0.0529
     39 H4'         3.8049   -0.1388   -0.4009 H         1 ACP         0.1213
     40 H3'         1.6783   -1.7629    0.2715 H         1 ACP         0.0524
     41 HO3'        2.2232   -1.2979    2.3953 H         1 ACP         0.4707
     42 H2'        -0.0011    0.0027    0.0003 H         1 ACP         0.0774
     43 HO2'       -0.6141    0.5574    2.1082 H         1 ACP         0.4561
     44 H1'         1.7826    1.9024    1.6451 H         1 ACP         0.1559
     45 H8          0.4111    3.9873    1.7100 H         1 ACP         0.2754
     46 HN61       -2.5859    5.5874   -1.5698 H         1 ACP         0.4584
     47 HN62       -3.1449    5.0423   -3.1284 H         1 ACP         0.4584
     48 H2         -0.9279    1.0504   -3.8088 H         1 ACP         0.0892
     49 H49        -1.2303    5.2364    0.2633 H         1 ACP         0.5039
@<TRIPOS>BOND
     1    1    2 2
     2    1    3 1
     3    1    4 1
     4    1    8 1
     5    3   32 1
     6    4   33 1
     7    5    6 2
     8    5    7 1
     9    5    8 1
    10    5   12 1
    11    8   34 1
    12    8   35 1
    13    9   10 2
    14    9   11 1
    15    9   12 1
    16    9   13 1
    17   11   36 1
    18   13   14 1
    19   14   15 1
    20   14   37 1
    21   14   38 1
    22   15   16 1
    23   15   17 1
    24   15   39 1
    25   16   21 1
    26   17   18 1
    27   17   19 1
    28   17   40 1
    29   18   41 1
    30   19   20 1
    31   19   21 1
    32   19   42 1
    33   20   43 1
    34   21   22 1
    35   21   44 1
    36   22   23 ar
    37   22   31 ar
    38   23   24 ar
    39   23   45 1
    40   24   25 ar
    41   24   49 1
    42   25   26 ar
    43   25   31 ar
    44   26   27 1
    45   26   28 ar
    46   27   46 1
    47   27   47 1
    48   28   29 ar
    49   29   30 ar
    50   29   48 1
    51   30   31 ar
@<TRIPOS>SUBSTRUCTURE
     1 ACP         1 GROUP 0 A     ****
@<TRIPOS>MOLECULE
[[5-(6-amino-7,8-dihydropurin-8-ylium-9-yl)-3,4-dihydroxy-tetrahydrofuran-2-yl]methoxy-hydroxy-phosphoryl]oxy-(phosphonomethyl)phosphinate
   49    51     1     0     0
SMALL
USER_CHARGES

@<TRIPOS>ATOM
      1 PG         -5.3910   -3.5773    0.5309 P.3       1 ACP         1.6362
      2 O1G        -4.0694   -2.8815    0.6597 O.2       1 ACP        -0.8691
      3 O2G        -6.4524   -3.2786    1.7117 O.3       1 ACP        -0.8016
      4 O3G        -6.2188   -3.2490   -0.8170 O.3       1 ACP        -0.8016
      5 PB         -4.5702   -6.3463    1.9243 P.3       1 ACP         1.4874
      6 O1B        -4.6503   -7.8083    1.5504 O.co2     1 ACP        -0.8240
      7 O2B        -5.1837   -5.8047    3.1946 O.co2     1 ACP        -0.8240
      8 C3B        -5.2831   -5.3814    0.5164 C.3       1 ACP        -0.6510
      9 PA         -1.6900   -6.3397    2.5546 P.3       1 ACP         1.7966
     10 O1A        -1.3519   -7.7847    2.3275 O.2       1 ACP        -0.8436
     11 O2A        -1.9584   -5.9518    4.1021 O.3       1 ACP        -0.8190
     12 O3A        -3.0271   -5.8351    1.7975 O.3       1 ACP        -0.7947
     13 O5'        -0.5702   -5.2849    2.0531 O.3       1 ACP        -0.5846
     14 C5'        -0.7840   -3.8935    2.2172 C.3       1 ACP         0.2005
     15 C4'        -0.0724   -3.1466    1.1027 C.3       1 ACP         0.0711
     16 O4'        -0.8674   -3.1929   -0.0945 O.3       1 ACP        -0.4064
     17 C3'         0.1338   -1.6715    1.4027 C.3       1 ACP         0.0975
     18 O3'         1.2893   -1.4445    2.1808 O.3       1 ACP        -0.5957
     19 C2'         0.2158   -1.0724    0.0128 C.3       1 ACP         0.1195
     20 O2'         1.5141   -1.2448   -0.5513 O.3       1 ACP        -0.5845
     21 C1'        -0.7897   -1.9176   -0.7583 C.3       1 ACP         0.4064
     22 N9         -2.1040   -1.3333   -0.7704 N.pl3     1 ACP        -0.5630
     23 C8         -2.6611   -0.5376    0.1306 C.ar      1 ACP         0.2808
     24 N7         -3.9008   -0.1619   -0.1787 N.pl3     1 ACP        -0.5040
     25 C5         -4.1527   -0.7619   -1.3633 C.ar      1 ACP        -0.2807
     26 C6         -5.2376   -0.7682   -2.1896 C.ar      1 ACP         0.7712
     27 N6         -6.3842   -0.0312   -1.8286 N.pl3     1 ACP        -0.9461
     28 N1         -5.2214   -1.4713   -3.3433 N.ar      1 ACP        -0.7457
     29 C2         -4.0737   -2.1541   -3.6127 C.ar      1 ACP         0.7201
     30 N3         -2.9476   -2.2143   -2.8660 N.ar      1 ACP        -0.6849
     31 C4         -3.0383   -1.4958   -1.7429 C.ar      1 ACP         0.6369
     32 HOG2       -7.3339   -3.7076    1.6783 H         1 ACP         0.4781
     33 HOG3       -6.4810   -2.3216   -0.9998 H         1 ACP         0.4781
     34 H3B1       -6.3006   -5.7627    0.3746 H         1 ACP         0.1236
     35 H3B2       -4.7076   -5.6708   -0.3702 H         1 ACP         0.1236
     36 HOA2       -1.2411   -6.0897    4.7568 H         1 ACP         0.4716
     37 H5'1       -1.8600   -3.6935    2.1849 H         1 ACP         0.0529
     38 H5'2       -0.3935   -3.5870    3.1930 H         1 ACP         0.0529
     39 H4'         0.8886   -3.6448    0.8780 H         1 ACP         0.1213
     40 H3'        -0.7374   -1.2358    1.9870 H         1 ACP         0.0524
     41 HO3'        1.3408   -0.4870    2.3219 H         1 ACP         0.4707
     42 H2'        -0.0384   -0.0310    0.0096 H         1 ACP         0.0774
     43 HO2'        2.1463   -0.7958    0.0370 H         1 ACP         0.4561
     44 H1'        -0.4769   -2.1002   -1.8093 H         1 ACP         0.1559
     45 H8         -2.1661   -0.2178    1.0311 H         1 ACP         0.2754
     46 HN61       -6.4010    0.4463   -0.9500 H         1 ACP         0.4584
     47 HN62       -7.1957   -0.0744   -2.4116 H         1 ACP         0.4584
     48 H2         -4.0645   -2.7171   -4.5389 H         1 ACP         0.0892
     49 H49        -4.5050    0.4395    0.3640 H         1 ACP         0.5039
@<TRIPOS>BOND
     1    1    2 2
     2    1    3 1
     3    1    4 1
     4    1    8 1
     5    3   32 1
     6    4   33 1
     7    5    6 2
     8    5    7 1
     9    5    8 1
    10    5   12 1
    11    8   34 1
    12    8   35 1
    13    9   10 2
    14    9   11 1
    15    9   12 1
    16    9   13 1
    17   11   36 1
    18   13   14 1
    19   14   15 1
    20   14   37 1
    21   14   38 1
    22   15   16 1
    23   15   17 1
    24   15   39 1
    25   16   21 1
    26   17   18 1
    27   17   19 1
    28   17   40 1
    29   18   41 1
    30   19   20 1
    31   19   21 1
    32   19   42 1
    33   20   43 1
    34   21   22 1
    35   21   44 1
    36   22   23 ar
    37   22   31 ar
    38   23   24 ar
    39   23   45 1
    40   24   25 ar
    41   24   49 1
    42   25   26 ar
    43   25   31 ar
    44   26   27 1
    45   26   28 ar
    46   27   46 1
    47   27   47 1
    48   28   29 ar
    49   29   30 ar
    50   29   48 1
    51   30   31 ar
@<TRIPOS>SUBSTRUCTURE
     1 ACP         1 GROUP 0 A     ****
@<TRIPOS>MOLECULE
[[5-(6-amino-7,8-dihydropurin-8-ylium-9-yl)-3,4-dihydroxy-tetrahydrofuran-2-yl]methoxy-hydroxy-phosphoryl]oxy-(phosphonomethyl)phosphinate
   49    51     1     0     0
SMALL
USER_CHARGES

@<TRIPOS>ATOM
      1 PG          1.2082    4.8435   -2.8029 P.3       1 ACP         1.6362
      2 O1G         2.0801    4.0542   -1.8732 O.2       1 ACP        -0.8691
      3 O2G         0.1567    5.8420   -2.0906 O.3       1 ACP        -0.8016
      4 O3G         1.9914    5.7964   -3.8461 O.3       1 ACP        -0.8016
      5 PB          0.8544    2.6116   -5.0781 P.3       1 ACP         1.4874
      6 O1B         1.7348    3.3780   -6.0379 O.co2     1 ACP        -0.8240
      7 O2B        -0.2924    1.7485   -5.5507 O.co2     1 ACP        -0.8240
      8 C3B         0.1609    3.8345   -3.8761 C.3       1 ACP        -0.6510
      9 PA          2.8839    0.6136   -4.3157 P.3       1 ACP         1.7966
     10 O1A         4.0340    1.0406   -5.1810 O.2       1 ACP        -0.8436
     11 O2A         2.0104   -0.6067   -4.9200 O.3       1 ACP        -0.8190
     12 O3A         1.7857    1.7682   -4.0391 O.3       1 ACP        -0.7947
     13 O5'         3.2874    0.1331   -2.8242 O.3       1 ACP        -0.5846
     14 C5'         2.2816   -0.2918   -1.9206 C.3       1 ACP         0.2005
     15 C4'         2.7248    0.0226   -0.4980 C.3       1 ACP         0.0711
     16 O4'         2.4697    1.4219   -0.2462 O.3       1 ACP        -0.4064
     17 C3'         1.9404   -0.7419    0.5596 C.3       1 ACP         0.0975
     18 O3'         2.7418   -0.8086    1.7389 O.3       1 ACP        -0.5957
     19 C2'         0.7477    0.1630    0.7858 C.3       1 ACP         0.1195
     20 O2'         0.1373   -0.0577    2.0407 O.3       1 ACP        -0.5845
     21 C1'         1.3733    1.5427    0.6747 C.3       1 ACP         0.4064
     22 N9          0.4520    2.5240    0.1767 N.pl3     1 ACP        -0.5630
     23 C8         -0.2172    2.5216   -0.9668 C.ar      1 ACP         0.2808
     24 N7         -1.0011    3.5855   -1.1321 N.pl3     1 ACP        -0.5040
     25 C5         -0.8184    4.3200   -0.0123 C.ar      1 ACP        -0.2807
     26 C6         -1.3349    5.5079    0.4144 C.ar      1 ACP         0.7712
     27 N6         -2.2567    6.1930   -0.4036 N.pl3     1 ACP        -0.9461
     28 N1         -0.9716    6.0291    1.6069 N.ar      1 ACP        -0.7457
     29 C2         -0.0765    5.3009    2.3312 C.ar      1 ACP         0.7201
     30 N3          0.4933    4.1191    2.0023 N.ar      1 ACP        -0.6849
     31 C4          0.0865    3.6675    0.8123 C.ar      1 ACP         0.6369
     32 HOG2        0.4972    6.5554   -1.5099 H         1 ACP         0.4781
     33 HOG3        1.4717    6.3365   -4.4790 H         1 ACP         0.4781
     34 H3B1       -0.5140    3.2674   -3.2250 H         1 ACP         0.1236
     35 H3B2       -0.4629    4.5166   -4.4650 H         1 ACP         0.1236
     36 HOA2        1.5687   -0.4894   -5.7879 H         1 ACP         0.4716
     37 H5'1        1.3494    0.2322   -2.1552 H         1 ACP         0.0529
     38 H5'2        2.1260   -1.3686   -2.0435 H         1 ACP         0.0529
     39 H4'         3.8049   -0.1388   -0.4009 H         1 ACP         0.1213
     40 H3'         1.6783   -1.7629    0.2715 H         1 ACP         0.0524
     41 HO3'        2.2232   -1.2979    2.3953 H         1 ACP         0.4707
     42 H2'        -0.0011    0.0027    0.0003 H         1 ACP         0.0774
     43 HO2'       -0.6141    0.5574    2.1082 H         1 ACP         0.4561
     44 H1'         1.7826    1.9024    1.6451 H         1 ACP         0.1559
     45 H8         -0.1423    1.7373   -1.6999 H         1 ACP         0.2754
     46 HN61       -2.4811    5.8206   -1.3042 H         1 ACP         0.4584
     47 HN62       -2.5986    7.0863   -0.1113 H         1 ACP         0.4584
     48 H2          0.2128    5.7222    3.2871 H         1 ACP         0.0892
     49 H49        -1.5947    3.7835   -1.9255 H         1 ACP         0.5039
@<TRIPOS>BOND
     1    1    2 2
     2    1    3 1
     3    1    4 1
     4    1    8 1
     5    3   32 1
     6    4   33 1
     7    5    6 2
     8    5    7 1
     9    5    8 1
    10    5   12 1
    11    8   34 1
    12    8   35 1
    13    9   10 2
    14    9   11 1
    15    9   12 1
    16    9   13 1
    17   11   36 1
    18   13   14 1
    19   14   15 1
    20   14   37 1
    21   14   38 1
    22   15   16 1
    23   15   17 1
    24   15   39 1
    25   16   21 1
    26   17   18 1
    27   17   19 1
    28   17   40 1
    29   18   41 1
    30   19   20 1
    31   19   21 1
    32   19   42 1
    33   20   43 1
    34   21   22 1
    35   21   44 1
    36   22   23 ar
    37   22   31 ar
    38   23   24 ar
    39   23   45 1
    40   24   25 ar
    41   24   49 1
    42   25   26 ar
    43   25   31 ar
    44   26   27 1
    45   26   28 ar
    46   27   46 1
    47   27   47 1
    48   28   29 ar
    49   29   30 ar
    50   29   48 1
    51   30   31 ar
@<TRIPOS>SUBSTRUCTURE
     1 ACP         1 GROUP 0 A     ****
