@<TRIPOS>MOLECULE
[[5-(6-amino-1,8-dihydropurine-6,8-diylium-7-id-9-yl)-3,4-dihydroxy-tetrahydrofuran-2-yl]methoxy-oxido-phosphoryl]oxy-(phosphonomethyl)phosphinate
   48    50     1     0     0
SMALL
USER_CHARGES

@<TRIPOS>ATOM
      1 PG         -2.1467    1.3539   -3.5554 P.3       1 ACP         1.6558
      2 O1G        -1.3725    0.8595   -2.3707 O.2       1 ACP        -0.9020
      3 O2G        -3.2315    2.5095   -3.2425 O.3       1 ACP        -0.8036
      4 O3G        -3.0035    0.2317   -4.3405 O.3       1 ACP        -0.8036
      5 PB          0.1937    1.1445   -5.7483 P.3       1 ACP         1.4945
      6 O1B         0.8117    2.0870   -6.7550 O.co2     1 ACP        -0.8481
      7 O2B        -0.3904   -0.1913   -6.1458 O.co2     1 ACP        -0.8481
      8 C3B        -1.1297    2.0823   -4.8595 C.3       1 ACP        -0.6636
      9 PA          2.7380    0.3741   -4.4295 P.3       1 ACP         1.6023
     10 O1A         3.6394    1.3278   -5.1833 O.co2     1 ACP        -0.8673
     11 O2A         2.7083   -1.0978   -4.7798 O.co2     1 ACP        -0.8673
     12 O3A         1.2106    0.9496   -4.4885 O.3       1 ACP        -0.8150
     13 O5'         3.0199    0.5139   -2.8245 O.3       1 ACP        -0.5522
     14 C5'         2.2816   -0.2918   -1.9206 C.3       1 ACP         0.2181
     15 C4'         2.7248    0.0226   -0.4980 C.3       1 ACP         0.0915
     16 O4'         2.4697    1.4219   -0.2462 O.3       1 ACP        -0.3675
     17 C3'         1.9404   -0.7419    0.5596 C.3       1 ACP         0.0748
     18 O3'         2.7418   -0.8086    1.7389 O.3       1 ACP        -0.5646
     19 C2'         0.7477    0.1630    0.7858 C.3       1 ACP         0.0804
     20 O2'         0.1373   -0.0577    2.0407 O.3       1 ACP        -0.5882
     21 C1'         1.3733    1.5427    0.6747 C.3       1 ACP         0.3809
     22 N9          0.4520    2.5240    0.1767 N.pl3     1 ACP        -0.4412
     23 C8          0.5793    3.3338   -1.1209 C.ar      1 ACP         0.1936
     24 N7         -0.4807    4.1508   -1.2458 N.2       1 ACP        -0.2746
     25 C5         -1.1921    3.8572   -0.1126 C.ar      1 ACP        -0.1386
     26 C6         -2.4855    4.5203    0.2163 C.ar      1 ACP         0.4778
     27 N6         -2.9873    5.4319   -0.6020 N.pl3     1 ACP        -0.8290
     28 N1         -3.0414    4.1119    1.3596 N.pl3     1 ACP        -0.6985
     29 C2         -2.4169    3.1071    2.1904 C.ar      1 ACP         0.6179
     30 N3         -1.2928    2.5191    1.9210 N.ar      1 ACP        -0.5105
     31 C4         -0.7202    2.9326    0.7534 C.ar      1 ACP         0.2753
     32 HOG2       -3.9599    2.3197   -2.6137 H         1 ACP         0.4487
     33 HOG3       -3.7017   -0.2581   -3.8561 H         1 ACP         0.4487
     34 H3B1       -1.8055    2.4489   -5.6404 H         1 ACP         0.1088
     35 H3B2       -0.6355    2.9598   -4.4271 H         1 ACP         0.1088
     36 H5'1        1.2154   -0.0780   -2.0455 H         1 ACP         0.0327
     37 H5'2        2.4646   -1.3453   -2.1548 H         1 ACP         0.0327
     38 H4'         3.8046   -0.1390   -0.4011 H         1 ACP         0.1275
     39 H3'         1.6787   -1.7627    0.2719 H         1 ACP         0.0637
     40 HO3'        2.2231   -1.2979    2.3952 H         1 ACP         0.4127
     41 H2'         0.0002   -0.0084   -0.0014 H         1 ACP         0.0692
     42 HO2'       -0.1554   -0.9852    2.0577 H         1 ACP         0.4431
     43 H1'         1.7718    1.9211    1.6015 H         1 ACP         0.1199
     44 H8          1.3565    3.3309   -1.8916 H         1 ACP         0.2941
     45 HN61       -2.4952    5.6785   -1.4487 H         1 ACP         0.4754
     46 HN62       -3.8637    5.8828   -0.3819 H         1 ACP         0.4754
     47 H2         -2.9911    2.8734    3.1000 H         1 ACP         0.0886
     48 H48        -3.9253    4.5332    1.6302 H         1 ACP         0.4707
@<TRIPOS>BOND
     1    1    2 2
     2    1    3 1
     3    1    4 1
     4    1    8 1
     5    3   32 1
     6    4   33 1
     7    5    6 2
     8    5    7 1
     9    5    8 1
    10    5   12 1
    11    8   34 1
    12    8   35 1
    13    9   10 2
    14    9   11 1
    15    9   12 1
    16    9   13 1
    17   13   14 1
    18   14   15 1
    19   14   36 1
    20   14   37 1
    21   15   16 1
    22   15   17 1
    23   15   38 1
    24   16   21 1
    25   17   18 1
    26   17   19 1
    27   17   39 1
    28   18   40 1
    29   19   20 1
    30   19   21 1
    31   19   41 1
    32   20   42 1
    33   21   22 1
    34   21   43 1
    35   22   23 ar
    36   22   31 ar
    37   23   24 ar
    38   23   44 1
    39   24   25 ar
    40   25   26 ar
    41   25   31 ar
    42   26   27 1
    43   26   28 ar
    44   27   45 1
    45   27   46 1
    46   28   29 ar
    47   28   48 1
    48   29   30 ar
    49   29   47 1
    50   30   31 ar
@<TRIPOS>SUBSTRUCTURE
     1 ACP         1 GROUP 0 A     ****
@<TRIPOS>MOLECULE
[[5-(6-amino-1,8-dihydropurine-6,8-diylium-7-id-9-yl)-3,4-dihydroxy-tetrahydrofuran-2-yl]methoxy-oxido-phosphoryl]oxy-(phosphonomethyl)phosphinate
   48    50     1     0     0
SMALL
USER_CHARGES

@<TRIPOS>ATOM
      1 PG         -2.1426    0.2536   -3.7289 P.3       1 ACP         1.6558
      2 O1G        -2.5931   -0.9779   -4.4554 O.2       1 ACP        -0.9020
      3 O2G        -1.0603    0.0096   -2.5545 O.3       1 ACP        -0.8036
      4 O3G        -3.3128    1.0939   -2.9980 O.3       1 ACP        -0.8036
      5 PB          0.1937    1.1445   -5.7483 P.3       1 ACP         1.4945
      6 O1B         0.5475    2.4118   -6.4915 O.co2     1 ACP        -0.8481
      7 O2B        -0.0052   -0.1766   -6.4545 O.co2     1 ACP        -0.8481
      8 C3B        -1.3435    1.4883   -4.7789 C.3       1 ACP        -0.6636
      9 PA          2.7380    0.3741   -4.4295 P.3       1 ACP         1.6023
     10 O1A         3.6394    1.3278   -5.1833 O.co2     1 ACP        -0.8673
     11 O2A         2.7083   -1.0978   -4.7798 O.co2     1 ACP        -0.8673
     12 O3A         1.2106    0.9496   -4.4885 O.3       1 ACP        -0.8150
     13 O5'         3.0199    0.5139   -2.8245 O.3       1 ACP        -0.5522
     14 C5'         2.2816   -0.2918   -1.9206 C.3       1 ACP         0.2181
     15 C4'         2.7248    0.0226   -0.4980 C.3       1 ACP         0.0915
     16 O4'         2.4697    1.4219   -0.2462 O.3       1 ACP        -0.3675
     17 C3'         1.9404   -0.7419    0.5596 C.3       1 ACP         0.0748
     18 O3'         2.7418   -0.8086    1.7389 O.3       1 ACP        -0.5646
     19 C2'         0.7477    0.1630    0.7858 C.3       1 ACP         0.0804
     20 O2'         0.1373   -0.0577    2.0407 O.3       1 ACP        -0.5882
     21 C1'         1.3733    1.5427    0.6747 C.3       1 ACP         0.3809
     22 N9          0.4520    2.5240    0.1767 N.pl3     1 ACP        -0.4412
     23 C8          0.1798    2.8712   -1.2933 C.ar      1 ACP         0.1936
     24 N7         -0.7494    3.8400   -1.3610 N.2       1 ACP        -0.2746
     25 C5         -1.0173    4.0603   -0.0358 C.ar      1 ACP        -0.1386
     26 C6         -2.0105    5.0717    0.4241 C.ar      1 ACP         0.4778
     27 N6         -2.6723    5.7982   -0.4628 N.pl3     1 ACP        -0.8290
     28 N1         -2.1445    5.1522    1.7502 N.pl3     1 ACP        -0.6985
     29 C2         -1.3755    4.3143    2.6426 C.ar      1 ACP         0.6179
     30 N3         -0.5075    3.4292    2.2616 N.ar      1 ACP        -0.5105
     31 C4         -0.3667    3.3425    0.9070 C.ar      1 ACP         0.2753
     32 HOG2       -1.2998   -0.5706   -1.8008 H         1 ACP         0.4487
     33 HOG3       -3.8488    0.6563   -2.3029 H         1 ACP         0.4487
     34 H3B1       -2.0837    1.8285   -5.5119 H         1 ACP         0.1088
     35 H3B2       -1.1084    2.3473   -4.1401 H         1 ACP         0.1088
     36 H5'1        1.2154   -0.0780   -2.0455 H         1 ACP         0.0327
     37 H5'2        2.4646   -1.3453   -2.1548 H         1 ACP         0.0327
     38 H4'         3.8046   -0.1390   -0.4011 H         1 ACP         0.1275
     39 H3'         1.6787   -1.7627    0.2719 H         1 ACP         0.0637
     40 HO3'        2.2231   -1.2979    2.3952 H         1 ACP         0.4127
     41 H2'         0.0002   -0.0084   -0.0014 H         1 ACP         0.0692
     42 HO2'       -0.6132    0.5577    2.1063 H         1 ACP         0.4431
     43 H1'         1.7718    1.9211    1.6015 H         1 ACP         0.1199
     44 H8          0.6089    2.4651   -2.2147 H         1 ACP         0.2941
     45 HN61       -2.5055    5.6680   -1.4503 H         1 ACP         0.4754
     46 HN62       -3.3462    6.4841   -0.1542 H         1 ACP         0.4754
     47 H2         -1.5932    4.4937    3.7066 H         1 ACP         0.0886
     48 H48        -2.8098    5.8270    2.1160 H         1 ACP         0.4707
@<TRIPOS>BOND
     1    1    2 2
     2    1    3 1
     3    1    4 1
     4    1    8 1
     5    3   32 1
     6    4   33 1
     7    5    6 2
     8    5    7 1
     9    5    8 1
    10    5   12 1
    11    8   34 1
    12    8   35 1
    13    9   10 2
    14    9   11 1
    15    9   12 1
    16    9   13 1
    17   13   14 1
    18   14   15 1
    19   14   36 1
    20   14   37 1
    21   15   16 1
    22   15   17 1
    23   15   38 1
    24   16   21 1
    25   17   18 1
    26   17   19 1
    27   17   39 1
    28   18   40 1
    29   19   20 1
    30   19   21 1
    31   19   41 1
    32   20   42 1
    33   21   22 1
    34   21   43 1
    35   22   23 ar
    36   22   31 ar
    37   23   24 ar
    38   23   44 1
    39   24   25 ar
    40   25   26 ar
    41   25   31 ar
    42   26   27 1
    43   26   28 ar
    44   27   45 1
    45   27   46 1
    46   28   29 ar
    47   28   48 1
    48   29   30 ar
    49   29   47 1
    50   30   31 ar
@<TRIPOS>SUBSTRUCTURE
     1 ACP         1 GROUP 0 A     ****
@<TRIPOS>MOLECULE
[[5-(6-amino-1,8-dihydropurine-6,8-diylium-7-id-9-yl)-3,4-dihydroxy-tetrahydrofuran-2-yl]methoxy-oxido-phosphoryl]oxy-(phosphonomethyl)phosphinate
   48    50     1     0     0
SMALL
USER_CHARGES

@<TRIPOS>ATOM
      1 PG          3.7893   -4.3683   -3.5755 P.3       1 ACP         1.6558
      2 O1G         4.3280   -4.3846   -2.1766 O.2       1 ACP        -0.9020
      3 O2G         2.2869   -3.7958   -3.7340 O.3       1 ACP        -0.8036
      4 O3G         3.7273   -5.8054   -4.3108 O.3       1 ACP        -0.8036
      5 PB          5.0047   -1.5398   -4.4985 P.3       1 ACP         1.4945
      6 O1B         5.8431   -1.0569   -5.6594 O.co2     1 ACP        -0.8481
      7 O2B         5.4162   -1.3236   -3.0607 O.co2     1 ACP        -0.8481
      8 C3B         4.7424   -3.3560   -4.7297 C.3       1 ACP        -0.6636
      9 PA          2.7380    0.3741   -4.4295 P.3       1 ACP         1.6023
     10 O1A         1.2513    0.2198   -4.6674 O.co2     1 ACP        -0.8673
     11 O2A         3.5254    1.4501   -5.1452 O.co2     1 ACP        -0.8673
     12 O3A         3.4589   -1.0647   -4.7080 O.3       1 ACP        -0.8150
     13 O5'         3.0199    0.5139   -2.8245 O.3       1 ACP        -0.5522
     14 C5'         2.2816   -0.2918   -1.9206 C.3       1 ACP         0.2181
     15 C4'         2.7248    0.0226   -0.4980 C.3       1 ACP         0.0915
     16 O4'         2.4697    1.4219   -0.2462 O.3       1 ACP        -0.3675
     17 C3'         1.9404   -0.7419    0.5596 C.3       1 ACP         0.0748
     18 O3'         2.7418   -0.8086    1.7389 O.3       1 ACP        -0.5646
     19 C2'         0.7477    0.1630    0.7858 C.3       1 ACP         0.0804
     20 O2'         0.1373   -0.0577    2.0407 O.3       1 ACP        -0.5882
     21 C1'         1.3733    1.5427    0.6747 C.3       1 ACP         0.3809
     22 N9          0.4520    2.5240    0.1767 N.pl3     1 ACP        -0.4412
     23 C8          0.1798    2.8712   -1.2933 C.ar      1 ACP         0.1936
     24 N7         -0.7494    3.8400   -1.3610 N.2       1 ACP        -0.2746
     25 C5         -1.0173    4.0603   -0.0358 C.ar      1 ACP        -0.1386
     26 C6         -2.0105    5.0717    0.4241 C.ar      1 ACP         0.4778
     27 N6         -2.6723    5.7982   -0.4628 N.pl3     1 ACP        -0.8290
     28 N1         -2.1445    5.1522    1.7502 N.pl3     1 ACP        -0.6985
     29 C2         -1.3755    4.3143    2.6426 C.ar      1 ACP         0.6179
     30 N3         -0.5075    3.4292    2.2616 N.ar      1 ACP        -0.5105
     31 C4         -0.3667    3.3425    0.9070 C.ar      1 ACP         0.2753
     32 HOG2        1.5548   -4.2454   -3.2608 H         1 ACP         0.4487
     33 HOG3        3.1850   -6.5195   -3.9134 H         1 ACP         0.4487
     34 H3B1        5.7455   -3.7914   -4.8015 H         1 ACP         0.1088
     35 H3B2        4.2746   -3.4676   -5.7146 H         1 ACP         0.1088
     36 H5'1        1.2154   -0.0780   -2.0455 H         1 ACP         0.0327
     37 H5'2        2.4646   -1.3453   -2.1548 H         1 ACP         0.0327
     38 H4'         3.8046   -0.1390   -0.4011 H         1 ACP         0.1275
     39 H3'         1.6787   -1.7627    0.2719 H         1 ACP         0.0637
     40 HO3'        2.2231   -1.2979    2.3952 H         1 ACP         0.4127
     41 H2'         0.0002   -0.0084   -0.0014 H         1 ACP         0.0692
     42 HO2'       -0.6132    0.5577    2.1063 H         1 ACP         0.4431
     43 H1'         1.7718    1.9211    1.6015 H         1 ACP         0.1199
     44 H8          0.6089    2.4651   -2.2147 H         1 ACP         0.2941
     45 HN61       -2.5055    5.6680   -1.4503 H         1 ACP         0.4754
     46 HN62       -3.3462    6.4841   -0.1542 H         1 ACP         0.4754
     47 H2         -1.5932    4.4937    3.7066 H         1 ACP         0.0886
     48 H48        -2.8098    5.8270    2.1160 H         1 ACP         0.4707
@<TRIPOS>BOND
     1    1    2 2
     2    1    3 1
     3    1    4 1
     4    1    8 1
     5    3   32 1
     6    4   33 1
     7    5    6 2
     8    5    7 1
     9    5    8 1
    10    5   12 1
    11    8   34 1
    12    8   35 1
    13    9   10 2
    14    9   11 1
    15    9   12 1
    16    9   13 1
    17   13   14 1
    18   14   15 1
    19   14   36 1
    20   14   37 1
    21   15   16 1
    22   15   17 1
    23   15   38 1
    24   16   21 1
    25   17   18 1
    26   17   19 1
    27   17   39 1
    28   18   40 1
    29   19   20 1
    30   19   21 1
    31   19   41 1
    32   20   42 1
    33   21   22 1
    34   21   43 1
    35   22   23 ar
    36   22   31 ar
    37   23   24 ar
    38   23   44 1
    39   24   25 ar
    40   25   26 ar
    41   25   31 ar
    42   26   27 1
    43   26   28 ar
    44   27   45 1
    45   27   46 1
    46   28   29 ar
    47   28   48 1
    48   29   30 ar
    49   29   47 1
    50   30   31 ar
@<TRIPOS>SUBSTRUCTURE
     1 ACP         1 GROUP 0 A     ****
@<TRIPOS>MOLECULE
[[5-(6-amino-1,8-dihydropurine-6,8-diylium-7-id-9-yl)-3,4-dihydroxy-tetrahydrofuran-2-yl]methoxy-oxido-phosphoryl]oxy-(phosphonomethyl)phosphinate
   48    50     1     0     0
SMALL
USER_CHARGES

@<TRIPOS>ATOM
      1 PG         -1.2179   -4.2630    0.4147 P.3       1 ACP         1.6558
      2 O1G         0.2208   -3.9757    0.7227 O.2       1 ACP        -0.9020
      3 O2G        -2.2506   -4.0184    1.6328 O.3       1 ACP        -0.8036
      4 O3G        -1.5372   -5.7751   -0.0557 O.3       1 ACP        -0.8036
      5 PB         -1.2348   -3.2756   -2.6439 P.3       1 ACP         1.4945
      6 O1B        -2.0715   -2.3180   -3.4602 O.co2     1 ACP        -0.8481
      7 O2B        -1.0438   -4.7210   -3.0411 O.co2     1 ACP        -0.8481
      8 C3B        -1.9087   -3.2616   -0.9215 C.3       1 ACP        -0.6636
      9 PA          1.5529   -2.4527   -3.2419 P.3       1 ACP         1.6023
     10 O1A         1.2368   -1.5456   -4.4115 O.co2     1 ACP        -0.8673
     11 O2A         2.1257   -3.8345   -3.4711 O.co2     1 ACP        -0.8673
     12 O3A         0.2119   -2.5960   -2.3207 O.3       1 ACP        -0.8150
     13 O5'         2.5238   -1.6632   -2.1888 O.3       1 ACP        -0.5522
     14 C5'         2.2816   -0.2918   -1.9206 C.3       1 ACP         0.2181
     15 C4'         2.7248    0.0226   -0.4980 C.3       1 ACP         0.0915
     16 O4'         2.4697    1.4219   -0.2462 O.3       1 ACP        -0.3675
     17 C3'         1.9404   -0.7419    0.5596 C.3       1 ACP         0.0748
     18 O3'         2.7418   -0.8086    1.7389 O.3       1 ACP        -0.5646
     19 C2'         0.7477    0.1630    0.7858 C.3       1 ACP         0.0804
     20 O2'         0.1373   -0.0577    2.0407 O.3       1 ACP        -0.5882
     21 C1'         1.3733    1.5427    0.6747 C.3       1 ACP         0.3809
     22 N9          0.4520    2.5240    0.1767 N.pl3     1 ACP        -0.4412
     23 C8          0.1798    2.8712   -1.2933 C.ar      1 ACP         0.1936
     24 N7         -0.7494    3.8400   -1.3610 N.2       1 ACP        -0.2746
     25 C5         -1.0173    4.0603   -0.0358 C.ar      1 ACP        -0.1386
     26 C6         -2.0105    5.0717    0.4241 C.ar      1 ACP         0.4778
     27 N6         -2.6723    5.7982   -0.4628 N.pl3     1 ACP        -0.8290
     28 N1         -2.1445    5.1522    1.7502 N.pl3     1 ACP        -0.6985
     29 C2         -1.3755    4.3143    2.6426 C.ar      1 ACP         0.6179
     30 N3         -0.5075    3.4292    2.2616 N.ar      1 ACP        -0.5105
     31 C4         -0.3667    3.3425    0.9070 C.ar      1 ACP         0.2753
     32 HOG2       -2.1354   -4.5281    2.4629 H         1 ACP         0.4487
     33 HOG3       -1.3279   -6.5160    0.5519 H         1 ACP         0.4487
     34 H3B1       -2.9683   -3.5240   -1.0181 H         1 ACP         0.1088
     35 H3B2       -1.8671   -2.2170   -0.5926 H         1 ACP         0.1088
     36 H5'1        2.8430    0.3138   -2.6391 H         1 ACP         0.0327
     37 H5'2        1.2126   -0.0907   -2.0421 H         1 ACP         0.0327
     38 H4'         3.8046   -0.1390   -0.4011 H         1 ACP         0.1275
     39 H3'         1.6787   -1.7627    0.2719 H         1 ACP         0.0637
     40 HO3'        2.2231   -1.2979    2.3952 H         1 ACP         0.4127
     41 H2'         0.0002   -0.0084   -0.0014 H         1 ACP         0.0692
     42 HO2'       -0.1554   -0.9852    2.0577 H         1 ACP         0.4431
     43 H1'         1.7718    1.9211    1.6015 H         1 ACP         0.1199
     44 H8          0.6089    2.4651   -2.2147 H         1 ACP         0.2941
     45 HN61       -2.5055    5.6680   -1.4503 H         1 ACP         0.4754
     46 HN62       -3.3462    6.4841   -0.1542 H         1 ACP         0.4754
     47 H2         -1.5932    4.4937    3.7066 H         1 ACP         0.0886
     48 H48        -2.8098    5.8270    2.1160 H         1 ACP         0.4707
@<TRIPOS>BOND
     1    1    2 2
     2    1    3 1
     3    1    4 1
     4    1    8 1
     5    3   32 1
     6    4   33 1
     7    5    6 2
     8    5    7 1
     9    5    8 1
    10    5   12 1
    11    8   34 1
    12    8   35 1
    13    9   10 2
    14    9   11 1
    15    9   12 1
    16    9   13 1
    17   13   14 1
    18   14   15 1
    19   14   36 1
    20   14   37 1
    21   15   16 1
    22   15   17 1
    23   15   38 1
    24   16   21 1
    25   17   18 1
    26   17   19 1
    27   17   39 1
    28   18   40 1
    29   19   20 1
    30   19   21 1
    31   19   41 1
    32   20   42 1
    33   21   22 1
    34   21   43 1
    35   22   23 ar
    36   22   31 ar
    37   23   24 ar
    38   23   44 1
    39   24   25 ar
    40   25   26 ar
    41   25   31 ar
    42   26   27 1
    43   26   28 ar
    44   27   45 1
    45   27   46 1
    46   28   29 ar
    47   28   48 1
    48   29   30 ar
    49   29   47 1
    50   30   31 ar
@<TRIPOS>SUBSTRUCTURE
     1 ACP         1 GROUP 0 A     ****
@<TRIPOS>MOLECULE
[[5-(6-amino-1,8-dihydropurine-6,8-diylium-7-id-9-yl)-3,4-dihydroxy-tetrahydrofuran-2-yl]methoxy-oxido-phosphoryl]oxy-(phosphonomethyl)phosphinate
   48    50     1     0     0
SMALL
USER_CHARGES

@<TRIPOS>ATOM
      1 PG         -2.1467    1.3539   -3.5554 P.3       1 ACP         1.6558
      2 O1G        -1.3725    0.8595   -2.3707 O.2       1 ACP        -0.9020
      3 O2G        -3.2315    2.5095   -3.2425 O.3       1 ACP        -0.8036
      4 O3G        -3.0035    0.2317   -4.3405 O.3       1 ACP        -0.8036
      5 PB          0.1937    1.1445   -5.7483 P.3       1 ACP         1.4945
      6 O1B         0.8117    2.0870   -6.7550 O.co2     1 ACP        -0.8481
      7 O2B        -0.3904   -0.1913   -6.1458 O.co2     1 ACP        -0.8481
      8 C3B        -1.1297    2.0823   -4.8595 C.3       1 ACP        -0.6636
      9 PA          2.7380    0.3741   -4.4295 P.3       1 ACP         1.6023
     10 O1A         3.6394    1.3278   -5.1833 O.co2     1 ACP        -0.8673
     11 O2A         2.7083   -1.0978   -4.7798 O.co2     1 ACP        -0.8673
     12 O3A         1.2106    0.9496   -4.4885 O.3       1 ACP        -0.8150
     13 O5'         3.0199    0.5139   -2.8245 O.3       1 ACP        -0.5522
     14 C5'         2.2816   -0.2918   -1.9206 C.3       1 ACP         0.2181
     15 C4'         2.7248    0.0226   -0.4980 C.3       1 ACP         0.0915
     16 O4'         2.4697    1.4219   -0.2462 O.3       1 ACP        -0.3675
     17 C3'         1.9404   -0.7419    0.5596 C.3       1 ACP         0.0748
     18 O3'         2.7418   -0.8086    1.7389 O.3       1 ACP        -0.5646
     19 C2'         0.7477    0.1630    0.7858 C.3       1 ACP         0.0804
     20 O2'         0.1373   -0.0577    2.0407 O.3       1 ACP        -0.5882
     21 C1'         1.3733    1.5427    0.6747 C.3       1 ACP         0.3809
     22 N9          0.4520    2.5240    0.1767 N.pl3     1 ACP        -0.4412
     23 C8         -1.0660    2.5608    0.3999 C.ar      1 ACP         0.1936
     24 N7         -1.5852    3.6333   -0.2221 N.2       1 ACP        -0.2746
     25 C5         -0.4682    4.1996   -0.7771 C.ar      1 ACP        -0.1386
     26 C6         -0.5216    5.4476   -1.5899 C.ar      1 ACP         0.4778
     27 N6         -1.6813    6.0510   -1.7982 N.pl3     1 ACP        -0.8290
     28 N1          0.6621    5.8575   -2.0523 N.pl3     1 ACP        -0.6985
     29 C2          1.8795    5.1301   -1.7717 C.ar      1 ACP         0.6179
     30 N3          1.9458    4.0434   -1.0670 N.ar      1 ACP        -0.5105
     31 C4          0.7388    3.6199   -0.5917 C.ar      1 ACP         0.2753
     32 HOG2       -3.9599    2.3197   -2.6137 H         1 ACP         0.4487
     33 HOG3       -3.7017   -0.2581   -3.8561 H         1 ACP         0.4487
     34 H3B1       -1.8055    2.4489   -5.6404 H         1 ACP         0.1088
     35 H3B2       -0.6355    2.9598   -4.4271 H         1 ACP         0.1088
     36 H5'1        1.2154   -0.0780   -2.0455 H         1 ACP         0.0327
     37 H5'2        2.4646   -1.3453   -2.1548 H         1 ACP         0.0327
     38 H4'         3.8046   -0.1390   -0.4011 H         1 ACP         0.1275
     39 H3'         1.6787   -1.7627    0.2719 H         1 ACP         0.0637
     40 HO3'        2.2231   -1.2979    2.3952 H         1 ACP         0.4127
     41 H2'         0.0002   -0.0084   -0.0014 H         1 ACP         0.0692
     42 HO2'       -0.1554   -0.9852    2.0577 H         1 ACP         0.4431
     43 H1'         1.7718    1.9211    1.6015 H         1 ACP         0.1199
     44 H8         -1.7235    1.8833    0.9537 H         1 ACP         0.2941
     45 HN61       -2.5296    5.6672   -1.4072 H         1 ACP         0.4754
     46 HN62       -1.7205    6.8969   -2.3483 H         1 ACP         0.4754
     47 H2          2.7750    5.5878   -2.2190 H         1 ACP         0.0886
     48 H48         0.6808    6.7046   -2.6128 H         1 ACP         0.4707
@<TRIPOS>BOND
     1    1    2 2
     2    1    3 1
     3    1    4 1
     4    1    8 1
     5    3   32 1
     6    4   33 1
     7    5    6 2
     8    5    7 1
     9    5    8 1
    10    5   12 1
    11    8   34 1
    12    8   35 1
    13    9   10 2
    14    9   11 1
    15    9   12 1
    16    9   13 1
    17   13   14 1
    18   14   15 1
    19   14   36 1
    20   14   37 1
    21   15   16 1
    22   15   17 1
    23   15   38 1
    24   16   21 1
    25   17   18 1
    26   17   19 1
    27   17   39 1
    28   18   40 1
    29   19   20 1
    30   19   21 1
    31   19   41 1
    32   20   42 1
    33   21   22 1
    34   21   43 1
    35   22   23 ar
    36   22   31 ar
    37   23   24 ar
    38   23   44 1
    39   24   25 ar
    40   25   26 ar
    41   25   31 ar
    42   26   27 1
    43   26   28 ar
    44   27   45 1
    45   27   46 1
    46   28   29 ar
    47   28   48 1
    48   29   30 ar
    49   29   47 1
    50   30   31 ar
@<TRIPOS>SUBSTRUCTURE
     1 ACP         1 GROUP 0 A     ****
@<TRIPOS>MOLECULE
[[5-(6-amino-1,8-dihydropurine-6,8-diylium-7-id-9-yl)-3,4-dihydroxy-tetrahydrofuran-2-yl]methoxy-oxido-phosphoryl]oxy-(phosphonomethyl)phosphinate
   48    50     1     0     0
SMALL
USER_CHARGES

@<TRIPOS>ATOM
      1 PG         -2.3250   -0.4940   -2.5272 P.3       1 ACP         1.6558
      2 O1G        -1.3727    0.4350   -3.2181 O.2       1 ACP        -0.9020
      3 O2G        -3.8834   -0.2976   -2.9051 O.3       1 ACP        -0.8036
      4 O3G        -2.3140   -0.4230   -0.9133 O.3       1 ACP        -0.8036
      5 PB         -0.4463   -3.1009   -2.4554 P.3       1 ACP         1.4945
      6 O1B        -0.5906   -4.5425   -2.8847 O.co2     1 ACP        -0.8481
      7 O2B        -0.0762   -2.7125   -1.0427 O.co2     1 ACP        -0.8481
      8 C3B        -2.0345   -2.2455   -2.8641 C.3       1 ACP        -0.6636
      9 PA          2.1358   -2.2685   -3.6578 P.3       1 ACP         1.6023
     10 O1A         2.4970   -1.2612   -4.7281 O.co2     1 ACP        -0.8673
     11 O2A         2.6457   -3.6911   -3.7347 O.co2     1 ACP        -0.8673
     12 O3A         0.5094   -2.3101   -3.5139 O.3       1 ACP        -0.8150
     13 O5'         2.5238   -1.6632   -2.1888 O.3       1 ACP        -0.5522
     14 C5'         2.2816   -0.2918   -1.9206 C.3       1 ACP         0.2181
     15 C4'         2.7248    0.0226   -0.4980 C.3       1 ACP         0.0915
     16 O4'         2.4697    1.4219   -0.2462 O.3       1 ACP        -0.3675
     17 C3'         1.9404   -0.7419    0.5596 C.3       1 ACP         0.0748
     18 O3'         2.7418   -0.8086    1.7389 O.3       1 ACP        -0.5646
     19 C2'         0.7477    0.1630    0.7858 C.3       1 ACP         0.0804
     20 O2'         0.1373   -0.0577    2.0407 O.3       1 ACP        -0.5882
     21 C1'         1.3733    1.5427    0.6747 C.3       1 ACP         0.3809
     22 N9          0.4520    2.5240    0.1767 N.pl3     1 ACP        -0.4412
     23 C8          0.1798    2.8712   -1.2933 C.ar      1 ACP         0.1936
     24 N7         -0.7494    3.8400   -1.3610 N.2       1 ACP        -0.2746
     25 C5         -1.0173    4.0603   -0.0358 C.ar      1 ACP        -0.1386
     26 C6         -2.0105    5.0717    0.4241 C.ar      1 ACP         0.4778
     27 N6         -2.6723    5.7982   -0.4628 N.pl3     1 ACP        -0.8290
     28 N1         -2.1445    5.1522    1.7502 N.pl3     1 ACP        -0.6985
     29 C2         -1.3755    4.3143    2.6426 C.ar      1 ACP         0.6179
     30 N3         -0.5075    3.4292    2.2616 N.ar      1 ACP        -0.5105
     31 C4         -0.3667    3.3425    0.9070 C.ar      1 ACP         0.2753
     32 HOG2       -4.3099    0.5676   -2.7275 H         1 ACP         0.4487
     33 HOG3       -2.5337    0.4258   -0.4736 H         1 ACP         0.4487
     34 H3B1       -2.8165   -2.8156   -2.3500 H         1 ACP         0.1088
     35 H3B2       -2.1859   -2.3936   -3.9394 H         1 ACP         0.1088
     36 H5'1        2.8430    0.3138   -2.6391 H         1 ACP         0.0327
     37 H5'2        1.2126   -0.0907   -2.0421 H         1 ACP         0.0327
     38 H4'         3.8046   -0.1390   -0.4011 H         1 ACP         0.1275
     39 H3'         1.6787   -1.7627    0.2719 H         1 ACP         0.0637
     40 HO3'        2.2231   -1.2979    2.3952 H         1 ACP         0.4127
     41 H2'         0.0002   -0.0084   -0.0014 H         1 ACP         0.0692
     42 HO2'       -0.6132    0.5577    2.1063 H         1 ACP         0.4431
     43 H1'         1.7718    1.9211    1.6015 H         1 ACP         0.1199
     44 H8          0.6089    2.4651   -2.2147 H         1 ACP         0.2941
     45 HN61       -2.5055    5.6680   -1.4503 H         1 ACP         0.4754
     46 HN62       -3.3462    6.4841   -0.1542 H         1 ACP         0.4754
     47 H2         -1.5932    4.4937    3.7066 H         1 ACP         0.0886
     48 H48        -2.8098    5.8270    2.1160 H         1 ACP         0.4707
@<TRIPOS>BOND
     1    1    2 2
     2    1    3 1
     3    1    4 1
     4    1    8 1
     5    3   32 1
     6    4   33 1
     7    5    6 2
     8    5    7 1
     9    5    8 1
    10    5   12 1
    11    8   34 1
    12    8   35 1
    13    9   10 2
    14    9   11 1
    15    9   12 1
    16    9   13 1
    17   13   14 1
    18   14   15 1
    19   14   36 1
    20   14   37 1
    21   15   16 1
    22   15   17 1
    23   15   38 1
    24   16   21 1
    25   17   18 1
    26   17   19 1
    27   17   39 1
    28   18   40 1
    29   19   20 1
    30   19   21 1
    31   19   41 1
    32   20   42 1
    33   21   22 1
    34   21   43 1
    35   22   23 ar
    36   22   31 ar
    37   23   24 ar
    38   23   44 1
    39   24   25 ar
    40   25   26 ar
    41   25   31 ar
    42   26   27 1
    43   26   28 ar
    44   27   45 1
    45   27   46 1
    46   28   29 ar
    47   28   48 1
    48   29   30 ar
    49   29   47 1
    50   30   31 ar
@<TRIPOS>SUBSTRUCTURE
     1 ACP         1 GROUP 0 A     ****
@<TRIPOS>MOLECULE
[[5-(6-amino-1,8-dihydropurine-6,8-diylium-7-id-9-yl)-3,4-dihydroxy-tetrahydrofuran-2-yl]methoxy-oxido-phosphoryl]oxy-(phosphonomethyl)phosphinate
   48    50     1     0     0
SMALL
USER_CHARGES

@<TRIPOS>ATOM
      1 PG          0.7265    4.1108   -4.4971 P.3       1 ACP         1.6558
      2 O1G         1.5096    3.7566   -3.2689 O.2       1 ACP        -0.9020
      3 O2G         1.5650    4.8439   -5.6675 O.3       1 ACP        -0.8036
      4 O3G        -0.5309    5.0963   -4.2569 O.3       1 ACP        -0.8036
      5 PB          0.9806    1.2956   -6.0269 P.3       1 ACP         1.4945
      6 O1B         1.9236    1.8766   -7.0549 O.co2     1 ACP        -0.8481
      7 O2B         0.0187    0.1773   -6.3548 O.co2     1 ACP        -0.8481
      8 C3B        -0.0149    2.6961   -5.3425 C.3       1 ACP        -0.6636
      9 PA          3.0640   -0.0874   -4.4291 P.3       1 ACP         1.6023
     10 O1A         4.2648    0.4427   -5.1825 O.co2     1 ACP        -0.8673
     11 O2A         2.5794   -1.5038   -4.6499 O.co2     1 ACP        -0.8673
     12 O3A         1.8101    0.9308   -4.6711 O.3       1 ACP        -0.8150
     13 O5'         3.2885    0.1337   -2.8242 O.3       1 ACP        -0.5522
     14 C5'         2.2816   -0.2918   -1.9206 C.3       1 ACP         0.2181
     15 C4'         2.7248    0.0226   -0.4980 C.3       1 ACP         0.0915
     16 O4'         2.4697    1.4219   -0.2462 O.3       1 ACP        -0.3675
     17 C3'         1.9404   -0.7419    0.5596 C.3       1 ACP         0.0748
     18 O3'         2.7418   -0.8086    1.7389 O.3       1 ACP        -0.5646
     19 C2'         0.7477    0.1630    0.7858 C.3       1 ACP         0.0804
     20 O2'         0.1373   -0.0577    2.0407 O.3       1 ACP        -0.5882
     21 C1'         1.3733    1.5427    0.6747 C.3       1 ACP         0.3809
     22 N9          0.4520    2.5240    0.1767 N.pl3     1 ACP        -0.4412
     23 C8         -0.3054    2.4845   -1.1576 C.ar      1 ACP         0.1936
     24 N7         -1.0755    3.5806   -1.2691 N.2       1 ACP        -0.2746
     25 C5         -0.8043    4.2306   -0.0942 C.ar      1 ACP        -0.1386
     26 C6         -1.4324    5.5335    0.2646 C.ar      1 ACP         0.4778
     27 N6         -2.2885    6.1054   -0.5675 N.pl3     1 ACP        -0.8290
     28 N1         -1.0537    6.0229    1.4478 N.pl3     1 ACP        -0.6985
     29 C2         -0.1096    5.3242    2.2908 C.ar      1 ACP         0.6179
     30 N3          0.4468    4.1904    1.9960 N.ar      1 ACP        -0.5105
     31 C4          0.0631    3.6855    0.7877 C.ar      1 ACP         0.2753
     32 HOG2        2.0006    5.7012   -5.4742 H         1 ACP         0.4487
     33 HOG3       -0.3711    5.9866   -3.8777 H         1 ACP         0.4487
     34 H3B1       -0.7327    2.2375   -4.6531 H         1 ACP         0.1088
     35 H3B2       -0.5912    3.0936   -6.1858 H         1 ACP         0.1088
     36 H5'1        1.3501    0.2325   -2.1561 H         1 ACP         0.0327
     37 H5'2        2.1268   -1.3683   -2.0445 H         1 ACP         0.0327
     38 H4'         3.8046   -0.1390   -0.4011 H         1 ACP         0.1275
     39 H3'         1.6787   -1.7627    0.2719 H         1 ACP         0.0637
     40 HO3'        2.2231   -1.2979    2.3952 H         1 ACP         0.4127
     41 H2'         0.0002   -0.0084   -0.0014 H         1 ACP         0.0692
     42 HO2'       -0.6132    0.5577    2.1063 H         1 ACP         0.4431
     43 H1'         1.7718    1.9211    1.6015 H         1 ACP         0.1199
     44 H8         -0.2991    1.7413   -1.9611 H         1 ACP         0.2941
     45 HN61       -2.5167    5.6603   -1.4447 H         1 ACP         0.4754
     46 HN62       -2.7159    6.9882   -0.3270 H         1 ACP         0.4754
     47 H2          0.1059    5.8491    3.2340 H         1 ACP         0.0886
     48 H48        -1.4532    6.9099    1.7401 H         1 ACP         0.4707
@<TRIPOS>BOND
     1    1    2 2
     2    1    3 1
     3    1    4 1
     4    1    8 1
     5    3   32 1
     6    4   33 1
     7    5    6 2
     8    5    7 1
     9    5    8 1
    10    5   12 1
    11    8   34 1
    12    8   35 1
    13    9   10 2
    14    9   11 1
    15    9   12 1
    16    9   13 1
    17   13   14 1
    18   14   15 1
    19   14   36 1
    20   14   37 1
    21   15   16 1
    22   15   17 1
    23   15   38 1
    24   16   21 1
    25   17   18 1
    26   17   19 1
    27   17   39 1
    28   18   40 1
    29   19   20 1
    30   19   21 1
    31   19   41 1
    32   20   42 1
    33   21   22 1
    34   21   43 1
    35   22   23 ar
    36   22   31 ar
    37   23   24 ar
    38   23   44 1
    39   24   25 ar
    40   25   26 ar
    41   25   31 ar
    42   26   27 1
    43   26   28 ar
    44   27   45 1
    45   27   46 1
    46   28   29 ar
    47   28   48 1
    48   29   30 ar
    49   29   47 1
    50   30   31 ar
@<TRIPOS>SUBSTRUCTURE
     1 ACP         1 GROUP 0 A     ****
@<TRIPOS>MOLECULE
[[5-(6-amino-1,8-dihydropurine-6,8-diylium-7-id-9-yl)-3,4-dihydroxy-tetrahydrofuran-2-yl]methoxy-oxido-phosphoryl]oxy-(phosphonomethyl)phosphinate
   48    50     1     0     0
SMALL
USER_CHARGES

@<TRIPOS>ATOM
      1 PG         -2.6049   -2.9291   -2.0228 P.3       1 ACP         1.6558
      2 O1G        -2.9231   -4.3930   -2.0772 O.2       1 ACP        -0.9020
      3 O2G        -1.3909   -2.5188   -1.0388 O.3       1 ACP        -0.8036
      4 O3G        -3.8178   -1.9736   -1.5478 O.3       1 ACP        -0.8036
      5 PB         -0.6407   -2.7954   -4.5632 P.3       1 ACP         1.4945
      6 O1B        -0.5629   -1.9595   -5.8197 O.co2     1 ACP        -0.8481
      7 O2B        -0.6955   -4.3051   -4.6002 O.co2     1 ACP        -0.8481
      8 C3B        -2.1135   -2.2135   -3.6077 C.3       1 ACP        -0.6636
      9 PA          2.1358   -2.2685   -3.6578 P.3       1 ACP         1.6023
     10 O1A         2.4970   -1.2612   -4.7281 O.co2     1 ACP        -0.8673
     11 O2A         2.6457   -3.6911   -3.7347 O.co2     1 ACP        -0.8673
     12 O3A         0.5094   -2.3101   -3.5139 O.3       1 ACP        -0.8150
     13 O5'         2.5238   -1.6632   -2.1888 O.3       1 ACP        -0.5522
     14 C5'         2.2816   -0.2918   -1.9206 C.3       1 ACP         0.2181
     15 C4'         2.7248    0.0226   -0.4980 C.3       1 ACP         0.0915
     16 O4'         2.4697    1.4219   -0.2462 O.3       1 ACP        -0.3675
     17 C3'         1.9404   -0.7419    0.5596 C.3       1 ACP         0.0748
     18 O3'         2.7418   -0.8086    1.7389 O.3       1 ACP        -0.5646
     19 C2'         0.7477    0.1630    0.7858 C.3       1 ACP         0.0804
     20 O2'         0.1373   -0.0577    2.0407 O.3       1 ACP        -0.5882
     21 C1'         1.3733    1.5427    0.6747 C.3       1 ACP         0.3809
     22 N9          0.4520    2.5240    0.1767 N.pl3     1 ACP        -0.4412
     23 C8          0.1798    2.8712   -1.2933 C.ar      1 ACP         0.1936
     24 N7         -0.7494    3.8400   -1.3610 N.2       1 ACP        -0.2746
     25 C5         -1.0173    4.0603   -0.0358 C.ar      1 ACP        -0.1386
     26 C6         -2.0105    5.0717    0.4241 C.ar      1 ACP         0.4778
     27 N6         -2.6723    5.7982   -0.4628 N.pl3     1 ACP        -0.8290
     28 N1         -2.1445    5.1522    1.7502 N.pl3     1 ACP        -0.6985
     29 C2         -1.3755    4.3143    2.6426 C.ar      1 ACP         0.6179
     30 N3         -0.5075    3.4292    2.2616 N.ar      1 ACP        -0.5105
     31 C4         -0.3667    3.3425    0.9070 C.ar      1 ACP         0.2753
     32 HOG2       -1.4633   -2.7264   -0.0829 H         1 ACP         0.4487
     33 HOG3       -4.2097   -2.1096   -0.6591 H         1 ACP         0.4487
     34 H3B1       -2.9643   -2.3085   -4.2918 H         1 ACP         0.1088
     35 H3B2       -1.9568   -1.1418   -3.4399 H         1 ACP         0.1088
     36 H5'1        2.8430    0.3138   -2.6391 H         1 ACP         0.0327
     37 H5'2        1.2126   -0.0907   -2.0421 H         1 ACP         0.0327
     38 H4'         3.8046   -0.1390   -0.4011 H         1 ACP         0.1275
     39 H3'         1.6787   -1.7627    0.2719 H         1 ACP         0.0637
     40 HO3'        2.2231   -1.2979    2.3952 H         1 ACP         0.4127
     41 H2'         0.0002   -0.0084   -0.0014 H         1 ACP         0.0692
     42 HO2'       -0.1554   -0.9852    2.0577 H         1 ACP         0.4431
     43 H1'         1.7718    1.9211    1.6015 H         1 ACP         0.1199
     44 H8          0.6089    2.4651   -2.2147 H         1 ACP         0.2941
     45 HN61       -2.5055    5.6680   -1.4503 H         1 ACP         0.4754
     46 HN62       -3.3462    6.4841   -0.1542 H         1 ACP         0.4754
     47 H2         -1.5932    4.4937    3.7066 H         1 ACP         0.0886
     48 H48        -2.8098    5.8270    2.1160 H         1 ACP         0.4707
@<TRIPOS>BOND
     1    1    2 2
     2    1    3 1
     3    1    4 1
     4    1    8 1
     5    3   32 1
     6    4   33 1
     7    5    6 2
     8    5    7 1
     9    5    8 1
    10    5   12 1
    11    8   34 1
    12    8   35 1
    13    9   10 2
    14    9   11 1
    15    9   12 1
    16    9   13 1
    17   13   14 1
    18   14   15 1
    19   14   36 1
    20   14   37 1
    21   15   16 1
    22   15   17 1
    23   15   38 1
    24   16   21 1
    25   17   18 1
    26   17   19 1
    27   17   39 1
    28   18   40 1
    29   19   20 1
    30   19   21 1
    31   19   41 1
    32   20   42 1
    33   21   22 1
    34   21   43 1
    35   22   23 ar
    36   22   31 ar
    37   23   24 ar
    38   23   44 1
    39   24   25 ar
    40   25   26 ar
    41   25   31 ar
    42   26   27 1
    43   26   28 ar
    44   27   45 1
    45   27   46 1
    46   28   29 ar
    47   28   48 1
    48   29   30 ar
    49   29   47 1
    50   30   31 ar
@<TRIPOS>SUBSTRUCTURE
     1 ACP         1 GROUP 0 A     ****
@<TRIPOS>MOLECULE
[[5-(6-amino-1,8-dihydropurine-6,8-diylium-7-id-9-yl)-3,4-dihydroxy-tetrahydrofuran-2-yl]methoxy-oxido-phosphoryl]oxy-(phosphonomethyl)phosphinate
   48    50     1     0     0
SMALL
USER_CHARGES

@<TRIPOS>ATOM
      1 PG         -2.7711   -1.0766   -3.3652 P.3       1 ACP         1.6558
      2 O1G        -3.0210   -0.4291   -2.0364 O.2       1 ACP        -0.9020
      3 O2G        -1.7394   -0.2972   -4.3338 O.3       1 ACP        -0.8036
      4 O3G        -4.0782   -1.2841   -4.2915 O.3       1 ACP        -0.8036
      5 PB         -0.4463   -3.1009   -2.4554 P.3       1 ACP         1.4945
      6 O1B        -0.2085   -4.5884   -2.5740 O.co2     1 ACP        -0.8481
      7 O2B        -0.4371   -2.3855   -1.1243 O.co2     1 ACP        -0.8481
      8 C3B        -2.0697   -2.7389   -3.2645 C.3       1 ACP        -0.6636
      9 PA          2.1358   -2.2685   -3.6578 P.3       1 ACP         1.6023
     10 O1A         2.4970   -1.2612   -4.7281 O.co2     1 ACP        -0.8673
     11 O2A         2.6457   -3.6911   -3.7347 O.co2     1 ACP        -0.8673
     12 O3A         0.5094   -2.3101   -3.5139 O.3       1 ACP        -0.8150
     13 O5'         2.5238   -1.6632   -2.1888 O.3       1 ACP        -0.5522
     14 C5'         2.2816   -0.2918   -1.9206 C.3       1 ACP         0.2181
     15 C4'         2.7248    0.0226   -0.4980 C.3       1 ACP         0.0915
     16 O4'         2.4697    1.4219   -0.2462 O.3       1 ACP        -0.3675
     17 C3'         1.9404   -0.7419    0.5596 C.3       1 ACP         0.0748
     18 O3'         2.7418   -0.8086    1.7389 O.3       1 ACP        -0.5646
     19 C2'         0.7477    0.1630    0.7858 C.3       1 ACP         0.0804
     20 O2'         0.1373   -0.0577    2.0407 O.3       1 ACP        -0.5882
     21 C1'         1.3733    1.5427    0.6747 C.3       1 ACP         0.3809
     22 N9          0.4520    2.5240    0.1767 N.pl3     1 ACP        -0.4412
     23 C8          0.1798    2.8712   -1.2933 C.ar      1 ACP         0.1936
     24 N7         -0.7494    3.8400   -1.3610 N.2       1 ACP        -0.2746
     25 C5         -1.0173    4.0603   -0.0358 C.ar      1 ACP        -0.1386
     26 C6         -2.0105    5.0717    0.4241 C.ar      1 ACP         0.4778
     27 N6         -2.6723    5.7982   -0.4628 N.pl3     1 ACP        -0.8290
     28 N1         -2.1445    5.1522    1.7502 N.pl3     1 ACP        -0.6985
     29 C2         -1.3755    4.3143    2.6426 C.ar      1 ACP         0.6179
     30 N3         -0.5075    3.4292    2.2616 N.ar      1 ACP        -0.5105
     31 C4         -0.3667    3.3425    0.9070 C.ar      1 ACP         0.2753
     32 HOG2       -1.9498    0.6192   -4.6130 H         1 ACP         0.4487
     33 HOG3       -4.5966   -0.4976   -4.5649 H         1 ACP         0.4487
     34 H3B1       -2.8010   -3.3764   -2.7550 H         1 ACP         0.1088
     35 H3B2       -1.9817   -3.1116   -4.2914 H         1 ACP         0.1088
     36 H5'1        2.8430    0.3138   -2.6391 H         1 ACP         0.0327
     37 H5'2        1.2126   -0.0907   -2.0421 H         1 ACP         0.0327
     38 H4'         3.8046   -0.1390   -0.4011 H         1 ACP         0.1275
     39 H3'         1.6787   -1.7627    0.2719 H         1 ACP         0.0637
     40 HO3'        2.2231   -1.2979    2.3952 H         1 ACP         0.4127
     41 H2'         0.0002   -0.0084   -0.0014 H         1 ACP         0.0692
     42 HO2'       -0.6132    0.5577    2.1063 H         1 ACP         0.4431
     43 H1'         1.7718    1.9211    1.6015 H         1 ACP         0.1199
     44 H8          0.6089    2.4651   -2.2147 H         1 ACP         0.2941
     45 HN61       -2.5055    5.6680   -1.4503 H         1 ACP         0.4754
     46 HN62       -3.3462    6.4841   -0.1542 H         1 ACP         0.4754
     47 H2         -1.5932    4.4937    3.7066 H         1 ACP         0.0886
     48 H48        -2.8098    5.8270    2.1160 H         1 ACP         0.4707
@<TRIPOS>BOND
     1    1    2 2
     2    1    3 1
     3    1    4 1
     4    1    8 1
     5    3   32 1
     6    4   33 1
     7    5    6 2
     8    5    7 1
     9    5    8 1
    10    5   12 1
    11    8   34 1
    12    8   35 1
    13    9   10 2
    14    9   11 1
    15    9   12 1
    16    9   13 1
    17   13   14 1
    18   14   15 1
    19   14   36 1
    20   14   37 1
    21   15   16 1
    22   15   17 1
    23   15   38 1
    24   16   21 1
    25   17   18 1
    26   17   19 1
    27   17   39 1
    28   18   40 1
    29   19   20 1
    30   19   21 1
    31   19   41 1
    32   20   42 1
    33   21   22 1
    34   21   43 1
    35   22   23 ar
    36   22   31 ar
    37   23   24 ar
    38   23   44 1
    39   24   25 ar
    40   25   26 ar
    41   25   31 ar
    42   26   27 1
    43   26   28 ar
    44   27   45 1
    45   27   46 1
    46   28   29 ar
    47   28   48 1
    48   29   30 ar
    49   29   47 1
    50   30   31 ar
@<TRIPOS>SUBSTRUCTURE
     1 ACP         1 GROUP 0 A     ****
@<TRIPOS>MOLECULE
[[5-(6-amino-1,8-dihydropurine-6,8-diylium-7-id-9-yl)-3,4-dihydroxy-tetrahydrofuran-2-yl]methoxy-oxido-phosphoryl]oxy-(phosphonomethyl)phosphinate
   48    50     1     0     0
SMALL
USER_CHARGES

@<TRIPOS>ATOM
      1 PG          4.5944   -4.1442   -3.9701 P.3       1 ACP         1.6558
      2 O1G         3.3817   -5.0245   -4.0125 O.2       1 ACP        -0.9020
      3 O2G         6.0035   -4.9124   -3.7847 O.3       1 ACP        -0.8036
      4 O3G         4.6071   -3.0386   -2.7923 O.3       1 ACP        -0.8036
      5 PB          3.6212   -1.9264   -6.0829 P.3       1 ACP         1.4945
      6 O1B         2.3395   -2.6762   -6.3632 O.co2     1 ACP        -0.8481
      7 O2B         4.3123   -1.0884   -7.1335 O.co2     1 ACP        -0.8481
      8 C3B         4.8530   -3.1588   -5.4626 C.3       1 ACP        -0.6636
      9 PA          2.7380    0.3741   -4.4295 P.3       1 ACP         1.6023
     10 O1A         1.2513    0.2198   -4.6674 O.co2     1 ACP        -0.8673
     11 O2A         3.5254    1.4501   -5.1452 O.co2     1 ACP        -0.8673
     12 O3A         3.4589   -1.0647   -4.7080 O.3       1 ACP        -0.8150
     13 O5'         3.0199    0.5139   -2.8245 O.3       1 ACP        -0.5522
     14 C5'         2.2816   -0.2918   -1.9206 C.3       1 ACP         0.2181
     15 C4'         2.7248    0.0226   -0.4980 C.3       1 ACP         0.0915
     16 O4'         2.4697    1.4219   -0.2462 O.3       1 ACP        -0.3675
     17 C3'         1.9404   -0.7419    0.5596 C.3       1 ACP         0.0748
     18 O3'         2.7418   -0.8086    1.7389 O.3       1 ACP        -0.5646
     19 C2'         0.7477    0.1630    0.7858 C.3       1 ACP         0.0804
     20 O2'         0.1373   -0.0577    2.0407 O.3       1 ACP        -0.5882
     21 C1'         1.3733    1.5427    0.6747 C.3       1 ACP         0.3809
     22 N9          0.4520    2.5240    0.1767 N.pl3     1 ACP        -0.4412
     23 C8          0.1798    2.8712   -1.2933 C.ar      1 ACP         0.1936
     24 N7         -0.7494    3.8400   -1.3610 N.2       1 ACP        -0.2746
     25 C5         -1.0173    4.0603   -0.0358 C.ar      1 ACP        -0.1386
     26 C6         -2.0105    5.0717    0.4241 C.ar      1 ACP         0.4778
     27 N6         -2.6723    5.7982   -0.4628 N.pl3     1 ACP        -0.8290
     28 N1         -2.1445    5.1522    1.7502 N.pl3     1 ACP        -0.6985
     29 C2         -1.3755    4.3143    2.6426 C.ar      1 ACP         0.6179
     30 N3         -0.5075    3.4292    2.2616 N.ar      1 ACP        -0.5105
     31 C4         -0.3667    3.3425    0.9070 C.ar      1 ACP         0.2753
     32 HOG2        6.1450   -5.4583   -2.9821 H         1 ACP         0.4487
     33 HOG3        4.5646   -3.3378   -1.8592 H         1 ACP         0.4487
     34 H3B1        5.7875   -2.6012   -5.3333 H         1 ACP         0.1088
     35 H3B2        5.0127   -3.8630   -6.2870 H         1 ACP         0.1088
     36 H5'1        1.2154   -0.0780   -2.0455 H         1 ACP         0.0327
     37 H5'2        2.4646   -1.3453   -2.1548 H         1 ACP         0.0327
     38 H4'         3.8046   -0.1390   -0.4011 H         1 ACP         0.1275
     39 H3'         1.6787   -1.7627    0.2719 H         1 ACP         0.0637
     40 HO3'        2.2231   -1.2979    2.3952 H         1 ACP         0.4127
     41 H2'         0.0002   -0.0084   -0.0014 H         1 ACP         0.0692
     42 HO2'       -0.6132    0.5577    2.1063 H         1 ACP         0.4431
     43 H1'         1.7718    1.9211    1.6015 H         1 ACP         0.1199
     44 H8          0.6089    2.4651   -2.2147 H         1 ACP         0.2941
     45 HN61       -2.5055    5.6680   -1.4503 H         1 ACP         0.4754
     46 HN62       -3.3462    6.4841   -0.1542 H         1 ACP         0.4754
     47 H2         -1.5932    4.4937    3.7066 H         1 ACP         0.0886
     48 H48        -2.8098    5.8270    2.1160 H         1 ACP         0.4707
@<TRIPOS>BOND
     1    1    2 2
     2    1    3 1
     3    1    4 1
     4    1    8 1
     5    3   32 1
     6    4   33 1
     7    5    6 2
     8    5    7 1
     9    5    8 1
    10    5   12 1
    11    8   34 1
    12    8   35 1
    13    9   10 2
    14    9   11 1
    15    9   12 1
    16    9   13 1
    17   13   14 1
    18   14   15 1
    19   14   36 1
    20   14   37 1
    21   15   16 1
    22   15   17 1
    23   15   38 1
    24   16   21 1
    25   17   18 1
    26   17   19 1
    27   17   39 1
    28   18   40 1
    29   19   20 1
    30   19   21 1
    31   19   41 1
    32   20   42 1
    33   21   22 1
    34   21   43 1
    35   22   23 ar
    36   22   31 ar
    37   23   24 ar
    38   23   44 1
    39   24   25 ar
    40   25   26 ar
    41   25   31 ar
    42   26   27 1
    43   26   28 ar
    44   27   45 1
    45   27   46 1
    46   28   29 ar
    47   28   48 1
    48   29   30 ar
    49   29   47 1
    50   30   31 ar
@<TRIPOS>SUBSTRUCTURE
     1 ACP         1 GROUP 0 A     ****
@<TRIPOS>MOLECULE
[[5-(6-amino-1,8-dihydropurine-6,8-diylium-7-id-9-yl)-3,4-dihydroxy-tetrahydrofuran-2-yl]methoxy-oxido-phosphoryl]oxy-(phosphonomethyl)phosphinate
   48    50     1     0     0
SMALL
USER_CHARGES

@<TRIPOS>ATOM
      1 PG          4.2323   -3.3983   -7.0044 P.3       1 ACP         1.6558
      2 O1G         2.8199   -2.9306   -7.1883 O.2       1 ACP        -0.9020
      3 O2G         5.3348   -2.6534   -7.9208 O.3       1 ACP        -0.8036
      4 O3G         4.4876   -4.9654   -7.3021 O.3       1 ACP        -0.8036
      5 PB          5.0047   -1.5398   -4.4985 P.3       1 ACP         1.4945
      6 O1B         5.9159   -0.6817   -5.3453 O.co2     1 ACP        -0.8481
      7 O2B         5.2679   -1.7937   -3.0323 O.co2     1 ACP        -0.8481
      8 C3B         4.8754   -3.1874   -5.3289 C.3       1 ACP        -0.6636
      9 PA          2.7380    0.3741   -4.4295 P.3       1 ACP         1.6023
     10 O1A         1.2513    0.2198   -4.6674 O.co2     1 ACP        -0.8673
     11 O2A         3.5254    1.4501   -5.1452 O.co2     1 ACP        -0.8673
     12 O3A         3.4589   -1.0647   -4.7080 O.3       1 ACP        -0.8150
     13 O5'         3.0199    0.5139   -2.8245 O.3       1 ACP        -0.5522
     14 C5'         2.2816   -0.2918   -1.9206 C.3       1 ACP         0.2181
     15 C4'         2.7248    0.0226   -0.4980 C.3       1 ACP         0.0915
     16 O4'         2.4697    1.4219   -0.2462 O.3       1 ACP        -0.3675
     17 C3'         1.9404   -0.7419    0.5596 C.3       1 ACP         0.0748
     18 O3'         2.7418   -0.8086    1.7389 O.3       1 ACP        -0.5646
     19 C2'         0.7477    0.1630    0.7858 C.3       1 ACP         0.0804
     20 O2'         0.1373   -0.0577    2.0407 O.3       1 ACP        -0.5882
     21 C1'         1.3733    1.5427    0.6747 C.3       1 ACP         0.3809
     22 N9          0.4520    2.5240    0.1767 N.pl3     1 ACP        -0.4412
     23 C8          0.1798    2.8712   -1.2933 C.ar      1 ACP         0.1936
     24 N7         -0.7494    3.8400   -1.3610 N.2       1 ACP        -0.2746
     25 C5         -1.0173    4.0603   -0.0358 C.ar      1 ACP        -0.1386
     26 C6         -2.0105    5.0717    0.4241 C.ar      1 ACP         0.4778
     27 N6         -2.6723    5.7982   -0.4628 N.pl3     1 ACP        -0.8290
     28 N1         -2.1445    5.1522    1.7502 N.pl3     1 ACP        -0.6985
     29 C2         -1.3755    4.3143    2.6426 C.ar      1 ACP         0.6179
     30 N3         -0.5075    3.4292    2.2616 N.ar      1 ACP        -0.5105
     31 C4         -0.3667    3.3425    0.9070 C.ar      1 ACP         0.2753
     32 HOG2        5.2515   -2.7007   -8.8970 H         1 ACP         0.4487
     33 HOG3        4.2926   -5.3170   -8.1968 H         1 ACP         0.4487
     34 H3B1        4.2668   -3.8068   -4.6604 H         1 ACP         0.1088
     35 H3B2        5.8877   -3.6072   -5.3197 H         1 ACP         0.1088
     36 H5'1        1.2154   -0.0780   -2.0455 H         1 ACP         0.0327
     37 H5'2        2.4646   -1.3453   -2.1548 H         1 ACP         0.0327
     38 H4'         3.8046   -0.1390   -0.4011 H         1 ACP         0.1275
     39 H3'         1.6787   -1.7627    0.2719 H         1 ACP         0.0637
     40 HO3'        2.2231   -1.2979    2.3952 H         1 ACP         0.4127
     41 H2'         0.0002   -0.0084   -0.0014 H         1 ACP         0.0692
     42 HO2'       -0.6132    0.5577    2.1063 H         1 ACP         0.4431
     43 H1'         1.7718    1.9211    1.6015 H         1 ACP         0.1199
     44 H8          0.6089    2.4651   -2.2147 H         1 ACP         0.2941
     45 HN61       -2.5055    5.6680   -1.4503 H         1 ACP         0.4754
     46 HN62       -3.3462    6.4841   -0.1542 H         1 ACP         0.4754
     47 H2         -1.5932    4.4937    3.7066 H         1 ACP         0.0886
     48 H48        -2.8098    5.8270    2.1160 H         1 ACP         0.4707
@<TRIPOS>BOND
     1    1    2 2
     2    1    3 1
     3    1    4 1
     4    1    8 1
     5    3   32 1
     6    4   33 1
     7    5    6 2
     8    5    7 1
     9    5    8 1
    10    5   12 1
    11    8   34 1
    12    8   35 1
    13    9   10 2
    14    9   11 1
    15    9   12 1
    16    9   13 1
    17   13   14 1
    18   14   15 1
    19   14   36 1
    20   14   37 1
    21   15   16 1
    22   15   17 1
    23   15   38 1
    24   16   21 1
    25   17   18 1
    26   17   19 1
    27   17   39 1
    28   18   40 1
    29   19   20 1
    30   19   21 1
    31   19   41 1
    32   20   42 1
    33   21   22 1
    34   21   43 1
    35   22   23 ar
    36   22   31 ar
    37   23   24 ar
    38   23   44 1
    39   24   25 ar
    40   25   26 ar
    41   25   31 ar
    42   26   27 1
    43   26   28 ar
    44   27   45 1
    45   27   46 1
    46   28   29 ar
    47   28   48 1
    48   29   30 ar
    49   29   47 1
    50   30   31 ar
@<TRIPOS>SUBSTRUCTURE
     1 ACP         1 GROUP 0 A     ****
@<TRIPOS>MOLECULE
[[5-(6-amino-1,8-dihydropurine-6,8-diylium-7-id-9-yl)-3,4-dihydroxy-tetrahydrofuran-2-yl]methoxy-oxido-phosphoryl]oxy-(phosphonomethyl)phosphinate
   48    50     1     0     0
SMALL
USER_CHARGES

@<TRIPOS>ATOM
      1 PG         -1.4446    0.0821   -4.6784 P.3       1 ACP         1.6558
      2 O1G        -2.3878    0.7532   -5.6308 O.2       1 ACP        -0.9020
      3 O2G        -1.9056    0.0814   -3.1300 O.3       1 ACP        -0.8036
      4 O3G         0.0472    0.7000   -4.6298 O.3       1 ACP        -0.8036
      5 PB         -0.0341   -2.7256   -4.0021 P.3       1 ACP         1.4945
      6 O1B        -0.0545   -4.1118   -4.6035 O.co2     1 ACP        -0.8481
      7 O2B        -0.3731   -2.4698   -2.5519 O.co2     1 ACP        -0.8481
      8 C3B        -1.1543   -1.6675   -5.0251 C.3       1 ACP        -0.6636
      9 PA          2.8590   -2.1285   -3.7205 P.3       1 ACP         1.6023
     10 O1A         3.7684   -1.1070   -4.3687 O.co2     1 ACP        -0.8673
     11 O2A         3.2371   -3.5936   -3.6994 O.co2     1 ACP        -0.8673
     12 O3A         1.3710   -1.9888   -4.3790 O.3       1 ACP        -0.8150
     13 O5'         2.5238   -1.6632   -2.1888 O.3       1 ACP        -0.5522
     14 C5'         2.2816   -0.2918   -1.9206 C.3       1 ACP         0.2181
     15 C4'         2.7248    0.0226   -0.4980 C.3       1 ACP         0.0915
     16 O4'         2.4697    1.4219   -0.2462 O.3       1 ACP        -0.3675
     17 C3'         1.9404   -0.7419    0.5596 C.3       1 ACP         0.0748
     18 O3'         2.7418   -0.8086    1.7389 O.3       1 ACP        -0.5646
     19 C2'         0.7477    0.1630    0.7858 C.3       1 ACP         0.0804
     20 O2'         0.1373   -0.0577    2.0407 O.3       1 ACP        -0.5882
     21 C1'         1.3733    1.5427    0.6747 C.3       1 ACP         0.3809
     22 N9          0.4520    2.5240    0.1767 N.pl3     1 ACP        -0.4412
     23 C8          0.1798    2.8712   -1.2933 C.ar      1 ACP         0.1936
     24 N7         -0.7494    3.8400   -1.3610 N.2       1 ACP        -0.2746
     25 C5         -1.0173    4.0603   -0.0358 C.ar      1 ACP        -0.1386
     26 C6         -2.0105    5.0717    0.4241 C.ar      1 ACP         0.4778
     27 N6         -2.6723    5.7982   -0.4628 N.pl3     1 ACP        -0.8290
     28 N1         -2.1445    5.1522    1.7502 N.pl3     1 ACP        -0.6985
     29 C2         -1.3755    4.3143    2.6426 C.ar      1 ACP         0.6179
     30 N3         -0.5075    3.4292    2.2616 N.ar      1 ACP        -0.5105
     31 C4         -0.3667    3.3425    0.9070 C.ar      1 ACP         0.2753
     32 HOG2       -2.0455    0.9393   -2.6756 H         1 ACP         0.4487
     33 HOG3        0.1643    1.6394   -4.3731 H         1 ACP         0.4487
     34 H3B1       -2.1267   -2.1727   -5.0147 H         1 ACP         0.1088
     35 H3B2       -0.7722   -1.7313   -6.0503 H         1 ACP         0.1088
     36 H5'1        2.8430    0.3138   -2.6391 H         1 ACP         0.0327
     37 H5'2        1.2126   -0.0907   -2.0421 H         1 ACP         0.0327
     38 H4'         3.8046   -0.1390   -0.4011 H         1 ACP         0.1275
     39 H3'         1.6787   -1.7627    0.2719 H         1 ACP         0.0637
     40 HO3'        2.2231   -1.2979    2.3952 H         1 ACP         0.4127
     41 H2'         0.0002   -0.0084   -0.0014 H         1 ACP         0.0692
     42 HO2'       -0.1554   -0.9852    2.0577 H         1 ACP         0.4431
     43 H1'         1.7718    1.9211    1.6015 H         1 ACP         0.1199
     44 H8          0.6089    2.4651   -2.2147 H         1 ACP         0.2941
     45 HN61       -2.5055    5.6680   -1.4503 H         1 ACP         0.4754
     46 HN62       -3.3462    6.4841   -0.1542 H         1 ACP         0.4754
     47 H2         -1.5932    4.4937    3.7066 H         1 ACP         0.0886
     48 H48        -2.8098    5.8270    2.1160 H         1 ACP         0.4707
@<TRIPOS>BOND
     1    1    2 2
     2    1    3 1
     3    1    4 1
     4    1    8 1
     5    3   32 1
     6    4   33 1
     7    5    6 2
     8    5    7 1
     9    5    8 1
    10    5   12 1
    11    8   34 1
    12    8   35 1
    13    9   10 2
    14    9   11 1
    15    9   12 1
    16    9   13 1
    17   13   14 1
    18   14   15 1
    19   14   36 1
    20   14   37 1
    21   15   16 1
    22   15   17 1
    23   15   38 1
    24   16   21 1
    25   17   18 1
    26   17   19 1
    27   17   39 1
    28   18   40 1
    29   19   20 1
    30   19   21 1
    31   19   41 1
    32   20   42 1
    33   21   22 1
    34   21   43 1
    35   22   23 ar
    36   22   31 ar
    37   23   24 ar
    38   23   44 1
    39   24   25 ar
    40   25   26 ar
    41   25   31 ar
    42   26   27 1
    43   26   28 ar
    44   27   45 1
    45   27   46 1
    46   28   29 ar
    47   28   48 1
    48   29   30 ar
    49   29   47 1
    50   30   31 ar
@<TRIPOS>SUBSTRUCTURE
     1 ACP         1 GROUP 0 A     ****
@<TRIPOS>MOLECULE
[[5-(6-amino-1,8-dihydropurine-6,8-diylium-7-id-9-yl)-3,4-dihydroxy-tetrahydrofuran-2-yl]methoxy-oxido-phosphoryl]oxy-(phosphonomethyl)phosphinate
   48    50     1     0     0
SMALL
USER_CHARGES

@<TRIPOS>ATOM
      1 PG          5.9401   -3.5394   -4.5498 P.3       1 ACP         1.6558
      2 O1G         6.1056   -2.6145   -3.3817 O.2       1 ACP        -0.9020
      3 O2G         6.1259   -5.1106   -4.2226 O.3       1 ACP        -0.8036
      4 O3G         6.9525   -3.2863   -5.7829 O.3       1 ACP        -0.8036
      5 PB          3.6212   -1.9264   -6.0829 P.3       1 ACP         1.4945
      6 O1B         2.2542   -2.2679   -6.6291 O.co2     1 ACP        -0.8481
      7 O2B         4.7052   -1.3188   -6.9427 O.co2     1 ACP        -0.8481
      8 C3B         4.3127   -3.4688   -5.3321 C.3       1 ACP        -0.6636
      9 PA          2.7380    0.3741   -4.4295 P.3       1 ACP         1.6023
     10 O1A         1.2513    0.2198   -4.6674 O.co2     1 ACP        -0.8673
     11 O2A         3.5254    1.4501   -5.1452 O.co2     1 ACP        -0.8673
     12 O3A         3.4589   -1.0647   -4.7080 O.3       1 ACP        -0.8150
     13 O5'         3.0199    0.5139   -2.8245 O.3       1 ACP        -0.5522
     14 C5'         2.2816   -0.2918   -1.9206 C.3       1 ACP         0.2181
     15 C4'         2.7248    0.0226   -0.4980 C.3       1 ACP         0.0915
     16 O4'         2.4697    1.4219   -0.2462 O.3       1 ACP        -0.3675
     17 C3'         1.9404   -0.7419    0.5596 C.3       1 ACP         0.0748
     18 O3'         2.7418   -0.8086    1.7389 O.3       1 ACP        -0.5646
     19 C2'         0.7477    0.1630    0.7858 C.3       1 ACP         0.0804
     20 O2'         0.1373   -0.0577    2.0407 O.3       1 ACP        -0.5882
     21 C1'         1.3733    1.5427    0.6747 C.3       1 ACP         0.3809
     22 N9          0.4520    2.5240    0.1767 N.pl3     1 ACP        -0.4412
     23 C8          0.1798    2.8712   -1.2933 C.ar      1 ACP         0.1936
     24 N7         -0.7494    3.8400   -1.3610 N.2       1 ACP        -0.2746
     25 C5         -1.0173    4.0603   -0.0358 C.ar      1 ACP        -0.1386
     26 C6         -2.0105    5.0717    0.4241 C.ar      1 ACP         0.4778
     27 N6         -2.6723    5.7982   -0.4628 N.pl3     1 ACP        -0.8290
     28 N1         -2.1445    5.1522    1.7502 N.pl3     1 ACP        -0.6985
     29 C2         -1.3755    4.3143    2.6426 C.ar      1 ACP         0.6179
     30 N3         -0.5075    3.4292    2.2616 N.ar      1 ACP        -0.5105
     31 C4         -0.3667    3.3425    0.9070 C.ar      1 ACP         0.2753
     32 HOG2        6.9829   -5.4226   -3.8616 H         1 ACP         0.4487
     33 HOG3        7.9183   -3.3579   -5.6272 H         1 ACP         0.4487
     34 H3B1        4.2970   -4.2179   -6.1318 H         1 ACP         0.1088
     35 H3B2        3.5823   -3.7889   -4.5803 H         1 ACP         0.1088
     36 H5'1        1.2154   -0.0780   -2.0455 H         1 ACP         0.0327
     37 H5'2        2.4646   -1.3453   -2.1548 H         1 ACP         0.0327
     38 H4'         3.8046   -0.1390   -0.4011 H         1 ACP         0.1275
     39 H3'         1.6787   -1.7627    0.2719 H         1 ACP         0.0637
     40 HO3'        2.2231   -1.2979    2.3952 H         1 ACP         0.4127
     41 H2'         0.0002   -0.0084   -0.0014 H         1 ACP         0.0692
     42 HO2'       -0.6132    0.5577    2.1063 H         1 ACP         0.4431
     43 H1'         1.7718    1.9211    1.6015 H         1 ACP         0.1199
     44 H8          0.6089    2.4651   -2.2147 H         1 ACP         0.2941
     45 HN61       -2.5055    5.6680   -1.4503 H         1 ACP         0.4754
     46 HN62       -3.3462    6.4841   -0.1542 H         1 ACP         0.4754
     47 H2         -1.5932    4.4937    3.7066 H         1 ACP         0.0886
     48 H48        -2.8098    5.8270    2.1160 H         1 ACP         0.4707
@<TRIPOS>BOND
     1    1    2 2
     2    1    3 1
     3    1    4 1
     4    1    8 1
     5    3   32 1
     6    4   33 1
     7    5    6 2
     8    5    7 1
     9    5    8 1
    10    5   12 1
    11    8   34 1
    12    8   35 1
    13    9   10 2
    14    9   11 1
    15    9   12 1
    16    9   13 1
    17   13   14 1
    18   14   15 1
    19   14   36 1
    20   14   37 1
    21   15   16 1
    22   15   17 1
    23   15   38 1
    24   16   21 1
    25   17   18 1
    26   17   19 1
    27   17   39 1
    28   18   40 1
    29   19   20 1
    30   19   21 1
    31   19   41 1
    32   20   42 1
    33   21   22 1
    34   21   43 1
    35   22   23 ar
    36   22   31 ar
    37   23   24 ar
    38   23   44 1
    39   24   25 ar
    40   25   26 ar
    41   25   31 ar
    42   26   27 1
    43   26   28 ar
    44   27   45 1
    45   27   46 1
    46   28   29 ar
    47   28   48 1
    48   29   30 ar
    49   29   47 1
    50   30   31 ar
@<TRIPOS>SUBSTRUCTURE
     1 ACP         1 GROUP 0 A     ****
@<TRIPOS>MOLECULE
[[5-(6-amino-1,8-dihydropurine-6,8-diylium-7-id-9-yl)-3,4-dihydroxy-tetrahydrofuran-2-yl]methoxy-oxido-phosphoryl]oxy-(phosphonomethyl)phosphinate
   48    50     1     0     0
SMALL
USER_CHARGES

@<TRIPOS>ATOM
      1 PG          4.2959    1.5682   -5.5834 P.3       1 ACP         1.6558
      2 O1G         2.7976    1.5216   -5.5908 O.2       1 ACP        -0.9020
      3 O2G         4.9648    2.1758   -4.2441 O.3       1 ACP        -0.8036
      4 O3G         4.9681    2.4344   -6.7698 O.3       1 ACP        -0.8036
      5 PB          4.8394   -1.4237   -4.5425 P.3       1 ACP         1.4945
      6 O1B         5.3045   -0.9286   -3.1926 O.co2     1 ACP        -0.8481
      7 O2B         5.3889   -2.6818   -5.1739 O.co2     1 ACP        -0.8481
      8 C3B         5.0929   -0.0452   -5.7492 C.3       1 ACP        -0.6636
      9 PA          2.1358   -2.2685   -3.6578 P.3       1 ACP         1.6023
     10 O1A         2.4845   -3.7405   -3.7033 O.co2     1 ACP        -0.8673
     11 O2A         0.7432   -1.7950   -4.0135 O.co2     1 ACP        -0.8673
     12 O3A         3.2094   -1.4534   -4.5800 O.3       1 ACP        -0.8150
     13 O5'         2.5238   -1.6632   -2.1888 O.3       1 ACP        -0.5522
     14 C5'         2.2816   -0.2918   -1.9206 C.3       1 ACP         0.2181
     15 C4'         2.7248    0.0226   -0.4980 C.3       1 ACP         0.0915
     16 O4'         2.4697    1.4219   -0.2462 O.3       1 ACP        -0.3675
     17 C3'         1.9404   -0.7419    0.5596 C.3       1 ACP         0.0748
     18 O3'         2.7418   -0.8086    1.7389 O.3       1 ACP        -0.5646
     19 C2'         0.7477    0.1630    0.7858 C.3       1 ACP         0.0804
     20 O2'         0.1373   -0.0577    2.0407 O.3       1 ACP        -0.5882
     21 C1'         1.3733    1.5427    0.6747 C.3       1 ACP         0.3809
     22 N9          0.4520    2.5240    0.1767 N.pl3     1 ACP        -0.4412
     23 C8          0.1798    2.8712   -1.2933 C.ar      1 ACP         0.1936
     24 N7         -0.7494    3.8400   -1.3610 N.2       1 ACP        -0.2746
     25 C5         -1.0173    4.0603   -0.0358 C.ar      1 ACP        -0.1386
     26 C6         -2.0105    5.0717    0.4241 C.ar      1 ACP         0.4778
     27 N6         -2.6723    5.7982   -0.4628 N.pl3     1 ACP        -0.8290
     28 N1         -2.1445    5.1522    1.7502 N.pl3     1 ACP        -0.6985
     29 C2         -1.3755    4.3143    2.6426 C.ar      1 ACP         0.6179
     30 N3         -0.5075    3.4292    2.2616 N.ar      1 ACP        -0.5105
     31 C4         -0.3667    3.3425    0.9070 C.ar      1 ACP         0.2753
     32 HOG2        4.7513    3.0966   -3.9822 H         1 ACP         0.4487
     33 HOG3        4.7549    3.3892   -6.8404 H         1 ACP         0.4487
     34 H3B1        4.8122   -0.4542   -6.7264 H         1 ACP         0.1088
     35 H3B2        6.1739    0.1335   -5.7765 H         1 ACP         0.1088
     36 H5'1        2.8430    0.3138   -2.6391 H         1 ACP         0.0327
     37 H5'2        1.2126   -0.0907   -2.0421 H         1 ACP         0.0327
     38 H4'         3.8046   -0.1390   -0.4011 H         1 ACP         0.1275
     39 H3'         1.6787   -1.7627    0.2719 H         1 ACP         0.0637
     40 HO3'        2.2231   -1.2979    2.3952 H         1 ACP         0.4127
     41 H2'         0.0002   -0.0084   -0.0014 H         1 ACP         0.0692
     42 HO2'       -0.6132    0.5577    2.1063 H         1 ACP         0.4431
     43 H1'         1.7718    1.9211    1.6015 H         1 ACP         0.1199
     44 H8          0.6089    2.4651   -2.2147 H         1 ACP         0.2941
     45 HN61       -2.5055    5.6680   -1.4503 H         1 ACP         0.4754
     46 HN62       -3.3462    6.4841   -0.1542 H         1 ACP         0.4754
     47 H2         -1.5932    4.4937    3.7066 H         1 ACP         0.0886
     48 H48        -2.8098    5.8270    2.1160 H         1 ACP         0.4707
@<TRIPOS>BOND
     1    1    2 2
     2    1    3 1
     3    1    4 1
     4    1    8 1
     5    3   32 1
     6    4   33 1
     7    5    6 2
     8    5    7 1
     9    5    8 1
    10    5   12 1
    11    8   34 1
    12    8   35 1
    13    9   10 2
    14    9   11 1
    15    9   12 1
    16    9   13 1
    17   13   14 1
    18   14   15 1
    19   14   36 1
    20   14   37 1
    21   15   16 1
    22   15   17 1
    23   15   38 1
    24   16   21 1
    25   17   18 1
    26   17   19 1
    27   17   39 1
    28   18   40 1
    29   19   20 1
    30   19   21 1
    31   19   41 1
    32   20   42 1
    33   21   22 1
    34   21   43 1
    35   22   23 ar
    36   22   31 ar
    37   23   24 ar
    38   23   44 1
    39   24   25 ar
    40   25   26 ar
    41   25   31 ar
    42   26   27 1
    43   26   28 ar
    44   27   45 1
    45   27   46 1
    46   28   29 ar
    47   28   48 1
    48   29   30 ar
    49   29   47 1
    50   30   31 ar
@<TRIPOS>SUBSTRUCTURE
     1 ACP         1 GROUP 0 A     ****
@<TRIPOS>MOLECULE
[[5-(6-amino-1,8-dihydropurine-6,8-diylium-7-id-9-yl)-3,4-dihydroxy-tetrahydrofuran-2-yl]methoxy-oxido-phosphoryl]oxy-(phosphonomethyl)phosphinate
   48    50     1     0     0
SMALL
USER_CHARGES

@<TRIPOS>ATOM
      1 PG          5.1963   -3.9724   -2.2612 P.3       1 ACP         1.6558
      2 O1G         4.4077   -3.0281   -1.4046 O.2       1 ACP        -0.9020
      3 O2G         4.3304   -5.0968   -3.0333 O.3       1 ACP        -0.8036
      4 O3G         6.3274   -4.8287   -1.4886 O.3       1 ACP        -0.8036
      5 PB          5.3139   -2.1795   -4.9261 P.3       1 ACP         1.4945
      6 O1B         4.3552   -3.0955   -5.6510 O.co2     1 ACP        -0.8481
      7 O2B         6.4049   -1.4207   -5.6454 O.co2     1 ACP        -0.8481
      8 C3B         6.1216   -3.1752   -3.5930 C.3       1 ACP        -0.6636
      9 PA          3.3317   -0.0541   -4.3262 P.3       1 ACP         1.6023
     10 O1A         2.1115   -0.7775   -4.8538 O.co2     1 ACP        -0.8673
     11 O2A         3.9771    1.0549   -5.1285 O.co2     1 ACP        -0.8673
     12 O3A         4.4753   -1.1630   -3.9655 O.3       1 ACP        -0.8150
     13 O5'         3.0199    0.5139   -2.8245 O.3       1 ACP        -0.5522
     14 C5'         2.2816   -0.2918   -1.9206 C.3       1 ACP         0.2181
     15 C4'         2.7248    0.0226   -0.4980 C.3       1 ACP         0.0915
     16 O4'         2.4697    1.4219   -0.2462 O.3       1 ACP        -0.3675
     17 C3'         1.9404   -0.7419    0.5596 C.3       1 ACP         0.0748
     18 O3'         2.7418   -0.8086    1.7389 O.3       1 ACP        -0.5646
     19 C2'         0.7477    0.1630    0.7858 C.3       1 ACP         0.0804
     20 O2'         0.1373   -0.0577    2.0407 O.3       1 ACP        -0.5882
     21 C1'         1.3733    1.5427    0.6747 C.3       1 ACP         0.3809
     22 N9          0.4520    2.5240    0.1767 N.pl3     1 ACP        -0.4412
     23 C8          0.1798    2.8712   -1.2933 C.ar      1 ACP         0.1936
     24 N7         -0.7494    3.8400   -1.3610 N.2       1 ACP        -0.2746
     25 C5         -1.0173    4.0603   -0.0358 C.ar      1 ACP        -0.1386
     26 C6         -2.0105    5.0717    0.4241 C.ar      1 ACP         0.4778
     27 N6         -2.6723    5.7982   -0.4628 N.pl3     1 ACP        -0.8290
     28 N1         -2.1445    5.1522    1.7502 N.pl3     1 ACP        -0.6985
     29 C2         -1.3755    4.3143    2.6426 C.ar      1 ACP         0.6179
     30 N3         -0.5075    3.4292    2.2616 N.ar      1 ACP        -0.5105
     31 C4         -0.3667    3.3425    0.9070 C.ar      1 ACP         0.2753
     32 HOG2        3.7961   -5.7291   -2.5072 H         1 ACP         0.4487
     33 HOG3        6.0559   -5.4255   -0.7591 H         1 ACP         0.4487
     34 H3B1        6.8569   -2.5067   -3.1312 H         1 ACP         0.1088
     35 H3B2        6.6844   -3.9626   -4.1072 H         1 ACP         0.1088
     36 H5'1        1.2154   -0.0780   -2.0455 H         1 ACP         0.0327
     37 H5'2        2.4646   -1.3453   -2.1548 H         1 ACP         0.0327
     38 H4'         3.8046   -0.1390   -0.4011 H         1 ACP         0.1275
     39 H3'         1.6787   -1.7627    0.2719 H         1 ACP         0.0637
     40 HO3'        2.2231   -1.2979    2.3952 H         1 ACP         0.4127
     41 H2'         0.0002   -0.0084   -0.0014 H         1 ACP         0.0692
     42 HO2'       -0.1554   -0.9852    2.0577 H         1 ACP         0.4431
     43 H1'         1.7718    1.9211    1.6015 H         1 ACP         0.1199
     44 H8          0.6089    2.4651   -2.2147 H         1 ACP         0.2941
     45 HN61       -2.5055    5.6680   -1.4503 H         1 ACP         0.4754
     46 HN62       -3.3462    6.4841   -0.1542 H         1 ACP         0.4754
     47 H2         -1.5932    4.4937    3.7066 H         1 ACP         0.0886
     48 H48        -2.8098    5.8270    2.1160 H         1 ACP         0.4707
@<TRIPOS>BOND
     1    1    2 2
     2    1    3 1
     3    1    4 1
     4    1    8 1
     5    3   32 1
     6    4   33 1
     7    5    6 2
     8    5    7 1
     9    5    8 1
    10    5   12 1
    11    8   34 1
    12    8   35 1
    13    9   10 2
    14    9   11 1
    15    9   12 1
    16    9   13 1
    17   13   14 1
    18   14   15 1
    19   14   36 1
    20   14   37 1
    21   15   16 1
    22   15   17 1
    23   15   38 1
    24   16   21 1
    25   17   18 1
    26   17   19 1
    27   17   39 1
    28   18   40 1
    29   19   20 1
    30   19   21 1
    31   19   41 1
    32   20   42 1
    33   21   22 1
    34   21   43 1
    35   22   23 ar
    36   22   31 ar
    37   23   24 ar
    38   23   44 1
    39   24   25 ar
    40   25   26 ar
    41   25   31 ar
    42   26   27 1
    43   26   28 ar
    44   27   45 1
    45   27   46 1
    46   28   29 ar
    47   28   48 1
    48   29   30 ar
    49   29   47 1
    50   30   31 ar
@<TRIPOS>SUBSTRUCTURE
     1 ACP         1 GROUP 0 A     ****
@<TRIPOS>MOLECULE
[[5-(6-amino-1,8-dihydropurine-6,8-diylium-7-id-9-yl)-3,4-dihydroxy-tetrahydrofuran-2-yl]methoxy-oxido-phosphoryl]oxy-(phosphonomethyl)phosphinate
   48    50     1     0     0
SMALL
USER_CHARGES

@<TRIPOS>ATOM
      1 PG          0.7265    4.1108   -4.4971 P.3       1 ACP         1.6558
      2 O1G         1.6917    4.8952   -5.3340 O.2       1 ACP        -0.9020
      3 O2G        -0.5553    4.9348   -3.9601 O.3       1 ACP        -0.8036
      4 O3G         1.3452    3.4555   -3.1565 O.3       1 ACP        -0.8036
      5 PB          0.9806    1.2956   -6.0269 P.3       1 ACP         1.4945
      6 O1B         1.9236    1.8766   -7.0549 O.co2     1 ACP        -0.8481
      7 O2B         0.0187    0.1773   -6.3548 O.co2     1 ACP        -0.8481
      8 C3B        -0.0149    2.6961   -5.3425 C.3       1 ACP        -0.6636
      9 PA          3.0640   -0.0874   -4.4291 P.3       1 ACP         1.6023
     10 O1A         4.2648    0.4427   -5.1825 O.co2     1 ACP        -0.8673
     11 O2A         2.5794   -1.5038   -4.6499 O.co2     1 ACP        -0.8673
     12 O3A         1.8101    0.9308   -4.6711 O.3       1 ACP        -0.8150
     13 O5'         3.2885    0.1337   -2.8242 O.3       1 ACP        -0.5522
     14 C5'         2.2816   -0.2918   -1.9206 C.3       1 ACP         0.2181
     15 C4'         2.7248    0.0226   -0.4980 C.3       1 ACP         0.0915
     16 O4'         2.4697    1.4219   -0.2462 O.3       1 ACP        -0.3675
     17 C3'         1.9404   -0.7419    0.5596 C.3       1 ACP         0.0748
     18 O3'         2.7418   -0.8086    1.7389 O.3       1 ACP        -0.5646
     19 C2'         0.7477    0.1630    0.7858 C.3       1 ACP         0.0804
     20 O2'         0.1373   -0.0577    2.0407 O.3       1 ACP        -0.5882
     21 C1'         1.3733    1.5427    0.6747 C.3       1 ACP         0.3809
     22 N9          0.4520    2.5240    0.1767 N.pl3     1 ACP        -0.4412
     23 C8         -0.7463    2.2774   -0.7501 C.ar      1 ACP         0.1936
     24 N7         -1.3714    3.4419   -0.9948 N.2       1 ACP        -0.2746
     25 C5         -0.6104    4.3223   -0.2723 C.ar      1 ACP        -0.1386
     26 C6         -0.9062    5.7820   -0.2194 C.ar      1 ACP         0.4778
     27 N6         -1.9385    6.2713   -0.8881 N.pl3     1 ACP        -0.8290
     28 N1         -0.0613    6.4906    0.5336 N.pl3     1 ACP        -0.6985
     29 C2          1.0416    5.8662    1.2291 C.ar      1 ACP         0.6179
     30 N3          1.3146    4.5989    1.1954 N.ar      1 ACP        -0.5105
     31 C4          0.4541    3.8697    0.4273 C.ar      1 ACP         0.2753
     32 HOG2       -0.4108    5.7181   -3.3878 H         1 ACP         0.4487
     33 HOG3        1.7401    4.0441   -2.4785 H         1 ACP         0.4487
     34 H3B1       -0.7327    2.2375   -4.6531 H         1 ACP         0.1088
     35 H3B2       -0.5912    3.0936   -6.1858 H         1 ACP         0.1088
     36 H5'1        1.3501    0.2325   -2.1561 H         1 ACP         0.0327
     37 H5'2        2.1268   -1.3683   -2.0445 H         1 ACP         0.0327
     38 H4'         3.8046   -0.1390   -0.4011 H         1 ACP         0.1275
     39 H3'         1.6787   -1.7627    0.2719 H         1 ACP         0.0637
     40 HO3'        3.5553   -1.2733    1.4913 H         1 ACP         0.4127
     41 H2'         0.0002   -0.0084   -0.0014 H         1 ACP         0.0692
     42 HO2'       -0.1554   -0.9852    2.0577 H         1 ACP         0.4431
     43 H1'         1.7718    1.9211    1.6015 H         1 ACP         0.1199
     44 H8         -1.1244    1.3534   -1.1987 H         1 ACP         0.2941
     45 HN61       -2.5259    5.6573   -1.4336 H         1 ACP         0.4754
     46 HN62       -2.1416    7.2600   -0.8539 H         1 ACP         0.4754
     47 H2          1.6509    6.5764    1.8088 H         1 ACP         0.0886
     48 H48        -0.2190    7.4917    0.6033 H         1 ACP         0.4707
@<TRIPOS>BOND
     1    1    2 2
     2    1    3 1
     3    1    4 1
     4    1    8 1
     5    3   32 1
     6    4   33 1
     7    5    6 2
     8    5    7 1
     9    5    8 1
    10    5   12 1
    11    8   34 1
    12    8   35 1
    13    9   10 2
    14    9   11 1
    15    9   12 1
    16    9   13 1
    17   13   14 1
    18   14   15 1
    19   14   36 1
    20   14   37 1
    21   15   16 1
    22   15   17 1
    23   15   38 1
    24   16   21 1
    25   17   18 1
    26   17   19 1
    27   17   39 1
    28   18   40 1
    29   19   20 1
    30   19   21 1
    31   19   41 1
    32   20   42 1
    33   21   22 1
    34   21   43 1
    35   22   23 ar
    36   22   31 ar
    37   23   24 ar
    38   23   44 1
    39   24   25 ar
    40   25   26 ar
    41   25   31 ar
    42   26   27 1
    43   26   28 ar
    44   27   45 1
    45   27   46 1
    46   28   29 ar
    47   28   48 1
    48   29   30 ar
    49   29   47 1
    50   30   31 ar
@<TRIPOS>SUBSTRUCTURE
     1 ACP         1 GROUP 0 A     ****
@<TRIPOS>MOLECULE
[[5-(6-amino-1,8-dihydropurine-6,8-diylium-7-id-9-yl)-3,4-dihydroxy-tetrahydrofuran-2-yl]methoxy-oxido-phosphoryl]oxy-(phosphonomethyl)phosphinate
   48    50     1     0     0
SMALL
USER_CHARGES

@<TRIPOS>ATOM
      1 PG         -2.7275   -1.2980   -2.6625 P.3       1 ACP         1.6558
      2 O1G        -1.8372   -1.3979   -1.4605 O.2       1 ACP        -0.9020
      3 O2G        -3.8626   -0.1506   -2.5918 O.3       1 ACP        -0.8036
      4 O3G        -3.5609   -2.6348   -3.0204 O.3       1 ACP        -0.8036
      5 PB         -0.5443   -2.0213   -4.9076 P.3       1 ACP         1.4945
      6 O1B        -0.0669   -1.3795   -6.1897 O.co2     1 ACP        -0.8481
      7 O2B        -1.0636   -3.4396   -4.8596 O.co2     1 ACP        -0.8481
      8 C3B        -1.8602   -0.9284   -4.2041 C.3       1 ACP        -0.6636
      9 PA          2.1358   -2.2685   -3.6578 P.3       1 ACP         1.6023
     10 O1A         2.9130   -1.5310   -4.7268 O.co2     1 ACP        -0.8673
     11 O2A         2.1809   -3.7788   -3.5758 O.co2     1 ACP        -0.8673
     12 O3A         0.5726   -1.8024   -3.7398 O.3       1 ACP        -0.8150
     13 O5'         2.5238   -1.6632   -2.1888 O.3       1 ACP        -0.5522
     14 C5'         2.2816   -0.2918   -1.9206 C.3       1 ACP         0.2181
     15 C4'         2.7248    0.0226   -0.4980 C.3       1 ACP         0.0915
     16 O4'         2.4697    1.4219   -0.2462 O.3       1 ACP        -0.3675
     17 C3'         1.9404   -0.7419    0.5596 C.3       1 ACP         0.0748
     18 O3'         2.7418   -0.8086    1.7389 O.3       1 ACP        -0.5646
     19 C2'         0.7477    0.1630    0.7858 C.3       1 ACP         0.0804
     20 O2'         0.1373   -0.0577    2.0407 O.3       1 ACP        -0.5882
     21 C1'         1.3733    1.5427    0.6747 C.3       1 ACP         0.3809
     22 N9          0.4520    2.5240    0.1767 N.pl3     1 ACP        -0.4412
     23 C8          0.1798    2.8712   -1.2933 C.ar      1 ACP         0.1936
     24 N7         -0.7494    3.8400   -1.3610 N.2       1 ACP        -0.2746
     25 C5         -1.0173    4.0603   -0.0358 C.ar      1 ACP        -0.1386
     26 C6         -2.0105    5.0717    0.4241 C.ar      1 ACP         0.4778
     27 N6         -2.6723    5.7982   -0.4628 N.pl3     1 ACP        -0.8290
     28 N1         -2.1445    5.1522    1.7502 N.pl3     1 ACP        -0.6985
     29 C2         -1.3755    4.3143    2.6426 C.ar      1 ACP         0.6179
     30 N3         -0.5075    3.4292    2.2616 N.ar      1 ACP        -0.5105
     31 C4         -0.3667    3.3425    0.9070 C.ar      1 ACP         0.2753
     32 HOG2       -4.5287   -0.1849   -1.8725 H         1 ACP         0.4487
     33 HOG3       -4.1870   -2.9962   -2.3575 H         1 ACP         0.4487
     34 H3B1       -2.6145   -0.8308   -4.9930 H         1 ACP         0.1088
     35 H3B2       -1.3966    0.0572   -4.0818 H         1 ACP         0.1088
     36 H5'1        2.8430    0.3138   -2.6391 H         1 ACP         0.0327
     37 H5'2        1.2126   -0.0907   -2.0421 H         1 ACP         0.0327
     38 H4'         3.8046   -0.1390   -0.4011 H         1 ACP         0.1275
     39 H3'         1.6787   -1.7627    0.2719 H         1 ACP         0.0637
     40 HO3'        3.5553   -1.2733    1.4913 H         1 ACP         0.4127
     41 H2'         0.0002   -0.0084   -0.0014 H         1 ACP         0.0692
     42 HO2'       -0.6132    0.5577    2.1063 H         1 ACP         0.4431
     43 H1'         1.7718    1.9211    1.6015 H         1 ACP         0.1199
     44 H8          0.6089    2.4651   -2.2147 H         1 ACP         0.2941
     45 HN61       -2.5055    5.6680   -1.4503 H         1 ACP         0.4754
     46 HN62       -3.3462    6.4841   -0.1542 H         1 ACP         0.4754
     47 H2         -1.5932    4.4937    3.7066 H         1 ACP         0.0886
     48 H48        -2.8098    5.8270    2.1160 H         1 ACP         0.4707
@<TRIPOS>BOND
     1    1    2 2
     2    1    3 1
     3    1    4 1
     4    1    8 1
     5    3   32 1
     6    4   33 1
     7    5    6 2
     8    5    7 1
     9    5    8 1
    10    5   12 1
    11    8   34 1
    12    8   35 1
    13    9   10 2
    14    9   11 1
    15    9   12 1
    16    9   13 1
    17   13   14 1
    18   14   15 1
    19   14   36 1
    20   14   37 1
    21   15   16 1
    22   15   17 1
    23   15   38 1
    24   16   21 1
    25   17   18 1
    26   17   19 1
    27   17   39 1
    28   18   40 1
    29   19   20 1
    30   19   21 1
    31   19   41 1
    32   20   42 1
    33   21   22 1
    34   21   43 1
    35   22   23 ar
    36   22   31 ar
    37   23   24 ar
    38   23   44 1
    39   24   25 ar
    40   25   26 ar
    41   25   31 ar
    42   26   27 1
    43   26   28 ar
    44   27   45 1
    45   27   46 1
    46   28   29 ar
    47   28   48 1
    48   29   30 ar
    49   29   47 1
    50   30   31 ar
@<TRIPOS>SUBSTRUCTURE
     1 ACP         1 GROUP 0 A     ****
@<TRIPOS>MOLECULE
[[5-(6-amino-1,8-dihydropurine-6,8-diylium-7-id-9-yl)-3,4-dihydroxy-tetrahydrofuran-2-yl]methoxy-oxido-phosphoryl]oxy-(phosphonomethyl)phosphinate
   48    50     1     0     0
SMALL
USER_CHARGES

@<TRIPOS>ATOM
      1 PG          2.4786   -4.7932   -3.0733 P.3       1 ACP         1.6558
      2 O1G         1.9468   -6.1717   -3.3264 O.2       1 ACP        -0.9020
      3 O2G         3.1596   -4.5670   -1.6258 O.3       1 ACP        -0.8036
      4 O3G         1.3914   -3.6023   -3.1714 O.3       1 ACP        -0.8036
      5 PB          4.5910   -2.6145   -4.1321 P.3       1 ACP         1.4945
      6 O1B         5.6021   -2.5533   -5.2535 O.co2     1 ACP        -0.8481
      7 O2B         4.9716   -2.3809   -2.6885 O.co2     1 ACP        -0.8481
      8 C3B         3.7688   -4.2687   -4.2247 C.3       1 ACP        -0.6636
      9 PA          3.0640   -0.0874   -4.4291 P.3       1 ACP         1.6023
     10 O1A         1.6224    0.2104   -4.7809 O.co2     1 ACP        -0.8673
     11 O2A         4.1945    0.5982   -5.1653 O.co2     1 ACP        -0.8673
     12 O3A         3.2953   -1.7018   -4.5162 O.3       1 ACP        -0.8150
     13 O5'         3.2885    0.1337   -2.8242 O.3       1 ACP        -0.5522
     14 C5'         2.2816   -0.2918   -1.9206 C.3       1 ACP         0.2181
     15 C4'         2.7248    0.0226   -0.4980 C.3       1 ACP         0.0915
     16 O4'         2.4697    1.4219   -0.2462 O.3       1 ACP        -0.3675
     17 C3'         1.9404   -0.7419    0.5596 C.3       1 ACP         0.0748
     18 O3'         2.7418   -0.8086    1.7389 O.3       1 ACP        -0.5646
     19 C2'         0.7477    0.1630    0.7858 C.3       1 ACP         0.0804
     20 O2'         0.1373   -0.0577    2.0407 O.3       1 ACP        -0.5882
     21 C1'         1.3733    1.5427    0.6747 C.3       1 ACP         0.3809
     22 N9          0.4520    2.5240    0.1767 N.pl3     1 ACP        -0.4412
     23 C8          0.1798    2.8712   -1.2933 C.ar      1 ACP         0.1936
     24 N7         -0.7494    3.8400   -1.3610 N.2       1 ACP        -0.2746
     25 C5         -1.0173    4.0603   -0.0358 C.ar      1 ACP        -0.1386
     26 C6         -2.0105    5.0717    0.4241 C.ar      1 ACP         0.4778
     27 N6         -2.6723    5.7982   -0.4628 N.pl3     1 ACP        -0.8290
     28 N1         -2.1445    5.1522    1.7502 N.pl3     1 ACP        -0.6985
     29 C2         -1.3755    4.3143    2.6426 C.ar      1 ACP         0.6179
     30 N3         -0.5075    3.4292    2.2616 N.ar      1 ACP        -0.5105
     31 C4         -0.3667    3.3425    0.9070 C.ar      1 ACP         0.2753
     32 HOG2        2.6188   -4.7058   -0.8194 H         1 ACP         0.4487
     33 HOG3        0.6178   -3.6144   -2.5686 H         1 ACP         0.4487
     34 H3B1        4.5797   -5.0037   -4.1704 H         1 ACP         0.1088
     35 H3B2        3.3441   -4.3356   -5.2329 H         1 ACP         0.1088
     36 H5'1        1.3501    0.2325   -2.1561 H         1 ACP         0.0327
     37 H5'2        2.1268   -1.3683   -2.0445 H         1 ACP         0.0327
     38 H4'         3.8046   -0.1390   -0.4011 H         1 ACP         0.1275
     39 H3'         1.6787   -1.7627    0.2719 H         1 ACP         0.0637
     40 HO3'        3.5553   -1.2733    1.4913 H         1 ACP         0.4127
     41 H2'         0.0002   -0.0084   -0.0014 H         1 ACP         0.0692
     42 HO2'       -0.6132    0.5577    2.1063 H         1 ACP         0.4431
     43 H1'         1.7718    1.9211    1.6015 H         1 ACP         0.1199
     44 H8          0.6089    2.4651   -2.2147 H         1 ACP         0.2941
     45 HN61       -2.5055    5.6680   -1.4503 H         1 ACP         0.4754
     46 HN62       -3.3462    6.4841   -0.1542 H         1 ACP         0.4754
     47 H2         -1.5932    4.4937    3.7066 H         1 ACP         0.0886
     48 H48        -2.8098    5.8270    2.1160 H         1 ACP         0.4707
@<TRIPOS>BOND
     1    1    2 2
     2    1    3 1
     3    1    4 1
     4    1    8 1
     5    3   32 1
     6    4   33 1
     7    5    6 2
     8    5    7 1
     9    5    8 1
    10    5   12 1
    11    8   34 1
    12    8   35 1
    13    9   10 2
    14    9   11 1
    15    9   12 1
    16    9   13 1
    17   13   14 1
    18   14   15 1
    19   14   36 1
    20   14   37 1
    21   15   16 1
    22   15   17 1
    23   15   38 1
    24   16   21 1
    25   17   18 1
    26   17   19 1
    27   17   39 1
    28   18   40 1
    29   19   20 1
    30   19   21 1
    31   19   41 1
    32   20   42 1
    33   21   22 1
    34   21   43 1
    35   22   23 ar
    36   22   31 ar
    37   23   24 ar
    38   23   44 1
    39   24   25 ar
    40   25   26 ar
    41   25   31 ar
    42   26   27 1
    43   26   28 ar
    44   27   45 1
    45   27   46 1
    46   28   29 ar
    47   28   48 1
    48   29   30 ar
    49   29   47 1
    50   30   31 ar
@<TRIPOS>SUBSTRUCTURE
     1 ACP         1 GROUP 0 A     ****
@<TRIPOS>MOLECULE
[[5-(6-amino-1,8-dihydropurine-6,8-diylium-7-id-9-yl)-3,4-dihydroxy-tetrahydrofuran-2-yl]methoxy-oxido-phosphoryl]oxy-(phosphonomethyl)phosphinate
   48    50     1     0     0
SMALL
USER_CHARGES

@<TRIPOS>ATOM
      1 PG          7.3528   -2.4906   -2.4612 P.3       1 ACP         1.6558
      2 O1G         8.5817   -1.9566   -3.1334 O.2       1 ACP        -0.9020
      3 O2G         6.5082   -1.4140   -1.6022 O.3       1 ACP        -0.8036
      4 O3G         7.6033   -3.6971   -1.4165 O.3       1 ACP        -0.8036
      5 PB          5.3139   -2.1795   -4.9261 P.3       1 ACP         1.4945
      6 O1B         4.3552   -3.0955   -5.6510 O.co2     1 ACP        -0.8481
      7 O2B         6.4049   -1.4207   -5.6454 O.co2     1 ACP        -0.8481
      8 C3B         6.1216   -3.1752   -3.5930 C.3       1 ACP        -0.6636
      9 PA          3.3317   -0.0541   -4.3262 P.3       1 ACP         1.6023
     10 O1A         2.1115   -0.7775   -4.8538 O.co2     1 ACP        -0.8673
     11 O2A         3.9771    1.0549   -5.1285 O.co2     1 ACP        -0.8673
     12 O3A         4.4753   -1.1630   -3.9655 O.3       1 ACP        -0.8150
     13 O5'         3.0199    0.5139   -2.8245 O.3       1 ACP        -0.5522
     14 C5'         2.2816   -0.2918   -1.9206 C.3       1 ACP         0.2181
     15 C4'         2.7248    0.0226   -0.4980 C.3       1 ACP         0.0915
     16 O4'         2.4697    1.4219   -0.2462 O.3       1 ACP        -0.3675
     17 C3'         1.9404   -0.7419    0.5596 C.3       1 ACP         0.0748
     18 O3'         2.7418   -0.8086    1.7389 O.3       1 ACP        -0.5646
     19 C2'         0.7477    0.1630    0.7858 C.3       1 ACP         0.0804
     20 O2'         0.1373   -0.0577    2.0407 O.3       1 ACP        -0.5882
     21 C1'         1.3733    1.5427    0.6747 C.3       1 ACP         0.3809
     22 N9          0.4520    2.5240    0.1767 N.pl3     1 ACP        -0.4412
     23 C8          0.1798    2.8712   -1.2933 C.ar      1 ACP         0.1936
     24 N7         -0.7494    3.8400   -1.3610 N.2       1 ACP        -0.2746
     25 C5         -1.0173    4.0603   -0.0358 C.ar      1 ACP        -0.1386
     26 C6         -2.0105    5.0717    0.4241 C.ar      1 ACP         0.4778
     27 N6         -2.6723    5.7982   -0.4628 N.pl3     1 ACP        -0.8290
     28 N1         -2.1445    5.1522    1.7502 N.pl3     1 ACP        -0.6985
     29 C2         -1.3755    4.3143    2.6426 C.ar      1 ACP         0.6179
     30 N3         -0.5075    3.4292    2.2616 N.ar      1 ACP        -0.5105
     31 C4         -0.3667    3.3425    0.9070 C.ar      1 ACP         0.2753
     32 HOG2        6.9444   -0.9580   -0.8514 H         1 ACP         0.4487
     33 HOG3        8.1838   -3.5416   -0.6413 H         1 ACP         0.4487
     34 H3B1        6.5792   -4.0313   -4.1015 H         1 ACP         0.1088
     35 H3B2        5.3049   -3.5687   -2.9772 H         1 ACP         0.1088
     36 H5'1        1.2154   -0.0780   -2.0455 H         1 ACP         0.0327
     37 H5'2        2.4646   -1.3453   -2.1548 H         1 ACP         0.0327
     38 H4'         3.8046   -0.1390   -0.4011 H         1 ACP         0.1275
     39 H3'         1.6787   -1.7627    0.2719 H         1 ACP         0.0637
     40 HO3'        2.2231   -1.2979    2.3952 H         1 ACP         0.4127
     41 H2'         0.0002   -0.0084   -0.0014 H         1 ACP         0.0692
     42 HO2'       -0.6132    0.5577    2.1063 H         1 ACP         0.4431
     43 H1'         1.7718    1.9211    1.6015 H         1 ACP         0.1199
     44 H8          0.6089    2.4651   -2.2147 H         1 ACP         0.2941
     45 HN61       -2.5055    5.6680   -1.4503 H         1 ACP         0.4754
     46 HN62       -3.3462    6.4841   -0.1542 H         1 ACP         0.4754
     47 H2         -1.5932    4.4937    3.7066 H         1 ACP         0.0886
     48 H48        -2.8098    5.8270    2.1160 H         1 ACP         0.4707
@<TRIPOS>BOND
     1    1    2 2
     2    1    3 1
     3    1    4 1
     4    1    8 1
     5    3   32 1
     6    4   33 1
     7    5    6 2
     8    5    7 1
     9    5    8 1
    10    5   12 1
    11    8   34 1
    12    8   35 1
    13    9   10 2
    14    9   11 1
    15    9   12 1
    16    9   13 1
    17   13   14 1
    18   14   15 1
    19   14   36 1
    20   14   37 1
    21   15   16 1
    22   15   17 1
    23   15   38 1
    24   16   21 1
    25   17   18 1
    26   17   19 1
    27   17   39 1
    28   18   40 1
    29   19   20 1
    30   19   21 1
    31   19   41 1
    32   20   42 1
    33   21   22 1
    34   21   43 1
    35   22   23 ar
    36   22   31 ar
    37   23   24 ar
    38   23   44 1
    39   24   25 ar
    40   25   26 ar
    41   25   31 ar
    42   26   27 1
    43   26   28 ar
    44   27   45 1
    45   27   46 1
    46   28   29 ar
    47   28   48 1
    48   29   30 ar
    49   29   47 1
    50   30   31 ar
@<TRIPOS>SUBSTRUCTURE
     1 ACP         1 GROUP 0 A     ****
@<TRIPOS>MOLECULE
[[5-(6-amino-1,8-dihydropurine-6,8-diylium-7-id-9-yl)-3,4-dihydroxy-tetrahydrofuran-2-yl]methoxy-oxido-phosphoryl]oxy-(phosphonomethyl)phosphinate
   48    50     1     0     0
SMALL
USER_CHARGES

@<TRIPOS>ATOM
      1 PG          5.3233   -3.8087   -1.8238 P.3       1 ACP         1.6558
      2 O1G         3.8626   -3.8995   -2.1483 O.2       1 ACP        -0.9020
      3 O2G         6.1220   -5.2131   -1.8200 O.3       1 ACP        -0.8036
      4 O3G         5.6745   -3.1685   -0.3828 O.3       1 ACP        -0.8036
      5 PB          5.9339   -0.9967   -3.2556 P.3       1 ACP         1.4945
      6 O1B         6.9370   -0.5030   -4.2723 O.co2     1 ACP        -0.8481
      7 O2B         5.7725   -0.3482   -1.9003 O.co2     1 ACP        -0.8481
      8 C3B         6.2800   -2.7911   -2.9705 C.3       1 ACP        -0.6636
      9 PA          3.3317   -0.0541   -4.3262 P.3       1 ACP         1.6023
     10 O1A         2.1115   -0.7775   -4.8538 O.co2     1 ACP        -0.8673
     11 O2A         3.9771    1.0549   -5.1285 O.co2     1 ACP        -0.8673
     12 O3A         4.4753   -1.1630   -3.9655 O.3       1 ACP        -0.8150
     13 O5'         3.0199    0.5139   -2.8245 O.3       1 ACP        -0.5522
     14 C5'         2.2816   -0.2918   -1.9206 C.3       1 ACP         0.2181
     15 C4'         2.7248    0.0226   -0.4980 C.3       1 ACP         0.0915
     16 O4'         2.4697    1.4219   -0.2462 O.3       1 ACP        -0.3675
     17 C3'         1.9404   -0.7419    0.5596 C.3       1 ACP         0.0748
     18 O3'         2.7418   -0.8086    1.7389 O.3       1 ACP        -0.5646
     19 C2'         0.7477    0.1630    0.7858 C.3       1 ACP         0.0804
     20 O2'         0.1373   -0.0577    2.0407 O.3       1 ACP        -0.5882
     21 C1'         1.3733    1.5427    0.6747 C.3       1 ACP         0.3809
     22 N9          0.4520    2.5240    0.1767 N.pl3     1 ACP        -0.4412
     23 C8          0.1798    2.8712   -1.2933 C.ar      1 ACP         0.1936
     24 N7         -0.7494    3.8400   -1.3610 N.2       1 ACP        -0.2746
     25 C5         -1.0173    4.0603   -0.0358 C.ar      1 ACP        -0.1386
     26 C6         -2.0105    5.0717    0.4241 C.ar      1 ACP         0.4778
     27 N6         -2.6723    5.7982   -0.4628 N.pl3     1 ACP        -0.8290
     28 N1         -2.1445    5.1522    1.7502 N.pl3     1 ACP        -0.6985
     29 C2         -1.3755    4.3143    2.6426 C.ar      1 ACP         0.6179
     30 N3         -0.5075    3.4292    2.2616 N.ar      1 ACP        -0.5105
     31 C4         -0.3667    3.3425    0.9070 C.ar      1 ACP         0.2753
     32 HOG2        5.8398   -5.9184   -1.1995 H         1 ACP         0.4487
     33 HOG3        5.3332   -3.6046    0.4268 H         1 ACP         0.4487
     34 H3B1        7.3302   -2.8428   -2.6617 H         1 ACP         0.1088
     35 H3B2        6.2126   -3.2688   -3.9546 H         1 ACP         0.1088
     36 H5'1        1.2154   -0.0780   -2.0455 H         1 ACP         0.0327
     37 H5'2        2.4646   -1.3453   -2.1548 H         1 ACP         0.0327
     38 H4'         3.8046   -0.1390   -0.4011 H         1 ACP         0.1275
     39 H3'         1.6787   -1.7627    0.2719 H         1 ACP         0.0637
     40 HO3'        2.2231   -1.2979    2.3952 H         1 ACP         0.4127
     41 H2'         0.0002   -0.0084   -0.0014 H         1 ACP         0.0692
     42 HO2'       -0.6132    0.5577    2.1063 H         1 ACP         0.4431
     43 H1'         1.7718    1.9211    1.6015 H         1 ACP         0.1199
     44 H8          0.6089    2.4651   -2.2147 H         1 ACP         0.2941
     45 HN61       -2.5055    5.6680   -1.4503 H         1 ACP         0.4754
     46 HN62       -3.3462    6.4841   -0.1542 H         1 ACP         0.4754
     47 H2         -1.5932    4.4937    3.7066 H         1 ACP         0.0886
     48 H48        -2.8098    5.8270    2.1160 H         1 ACP         0.4707
@<TRIPOS>BOND
     1    1    2 2
     2    1    3 1
     3    1    4 1
     4    1    8 1
     5    3   32 1
     6    4   33 1
     7    5    6 2
     8    5    7 1
     9    5    8 1
    10    5   12 1
    11    8   34 1
    12    8   35 1
    13    9   10 2
    14    9   11 1
    15    9   12 1
    16    9   13 1
    17   13   14 1
    18   14   15 1
    19   14   36 1
    20   14   37 1
    21   15   16 1
    22   15   17 1
    23   15   38 1
    24   16   21 1
    25   17   18 1
    26   17   19 1
    27   17   39 1
    28   18   40 1
    29   19   20 1
    30   19   21 1
    31   19   41 1
    32   20   42 1
    33   21   22 1
    34   21   43 1
    35   22   23 ar
    36   22   31 ar
    37   23   24 ar
    38   23   44 1
    39   24   25 ar
    40   25   26 ar
    41   25   31 ar
    42   26   27 1
    43   26   28 ar
    44   27   45 1
    45   27   46 1
    46   28   29 ar
    47   28   48 1
    48   29   30 ar
    49   29   47 1
    50   30   31 ar
@<TRIPOS>SUBSTRUCTURE
     1 ACP         1 GROUP 0 A     ****
@<TRIPOS>MOLECULE
[[5-(6-amino-1,8-dihydropurine-6,8-diylium-7-id-9-yl)-3,4-dihydroxy-tetrahydrofuran-2-yl]methoxy-oxido-phosphoryl]oxy-(phosphonomethyl)phosphinate
   48    50     1     0     0
SMALL
USER_CHARGES

@<TRIPOS>ATOM
      1 PG          3.9182   -4.0557   -6.1777 P.3       1 ACP         1.6558
      2 O1G         4.5908   -3.7473   -7.4815 O.2       1 ACP        -0.9020
      3 O2G         3.7978   -5.6250   -5.8132 O.3       1 ACP        -0.8036
      4 O3G         2.4024   -3.5156   -6.0352 O.3       1 ACP        -0.8036
      5 PB          5.0047   -1.5398   -4.4985 P.3       1 ACP         1.4945
      6 O1B         5.8431   -1.0569   -5.6594 O.co2     1 ACP        -0.8481
      7 O2B         5.4162   -1.3236   -3.0607 O.co2     1 ACP        -0.8481
      8 C3B         4.7424   -3.3560   -4.7297 C.3       1 ACP        -0.6636
      9 PA          2.7380    0.3741   -4.4295 P.3       1 ACP         1.6023
     10 O1A         1.2513    0.2198   -4.6674 O.co2     1 ACP        -0.8673
     11 O2A         3.5254    1.4501   -5.1452 O.co2     1 ACP        -0.8673
     12 O3A         3.4589   -1.0647   -4.7080 O.3       1 ACP        -0.8150
     13 O5'         3.0199    0.5139   -2.8245 O.3       1 ACP        -0.5522
     14 C5'         2.2816   -0.2918   -1.9206 C.3       1 ACP         0.2181
     15 C4'         2.7248    0.0226   -0.4980 C.3       1 ACP         0.0915
     16 O4'         2.4697    1.4219   -0.2462 O.3       1 ACP        -0.3675
     17 C3'         1.9404   -0.7419    0.5596 C.3       1 ACP         0.0748
     18 O3'         2.7418   -0.8086    1.7389 O.3       1 ACP        -0.5646
     19 C2'         0.7477    0.1630    0.7858 C.3       1 ACP         0.0804
     20 O2'         0.1373   -0.0577    2.0407 O.3       1 ACP        -0.5882
     21 C1'         1.3733    1.5427    0.6747 C.3       1 ACP         0.3809
     22 N9          0.4520    2.5240    0.1767 N.pl3     1 ACP        -0.4412
     23 C8          0.1798    2.8712   -1.2933 C.ar      1 ACP         0.1936
     24 N7         -0.7494    3.8400   -1.3610 N.2       1 ACP        -0.2746
     25 C5         -1.0173    4.0603   -0.0358 C.ar      1 ACP        -0.1386
     26 C6         -2.0105    5.0717    0.4241 C.ar      1 ACP         0.4778
     27 N6         -2.6723    5.7982   -0.4628 N.pl3     1 ACP        -0.8290
     28 N1         -2.1445    5.1522    1.7502 N.pl3     1 ACP        -0.6985
     29 C2         -1.3755    4.3143    2.6426 C.ar      1 ACP         0.6179
     30 N3         -0.5075    3.4292    2.2616 N.ar      1 ACP        -0.5105
     31 C4         -0.3667    3.3425    0.9070 C.ar      1 ACP         0.2753
     32 HOG2        3.3033   -6.2169   -6.4191 H         1 ACP         0.4487
     33 HOG3        1.7244   -3.8297   -6.6706 H         1 ACP         0.4487
     34 H3B1        4.1922   -3.6891   -3.8425 H         1 ACP         0.1088
     35 H3B2        5.7381   -3.8110   -4.6775 H         1 ACP         0.1088
     36 H5'1        1.2154   -0.0780   -2.0455 H         1 ACP         0.0327
     37 H5'2        2.4646   -1.3453   -2.1548 H         1 ACP         0.0327
     38 H4'         3.8046   -0.1390   -0.4011 H         1 ACP         0.1275
     39 H3'         1.6787   -1.7627    0.2719 H         1 ACP         0.0637
     40 HO3'        3.5553   -1.2733    1.4913 H         1 ACP         0.4127
     41 H2'         0.0002   -0.0084   -0.0014 H         1 ACP         0.0692
     42 HO2'       -0.1554   -0.9852    2.0577 H         1 ACP         0.4431
     43 H1'         1.7718    1.9211    1.6015 H         1 ACP         0.1199
     44 H8          0.6089    2.4651   -2.2147 H         1 ACP         0.2941
     45 HN61       -2.5055    5.6680   -1.4503 H         1 ACP         0.4754
     46 HN62       -3.3462    6.4841   -0.1542 H         1 ACP         0.4754
     47 H2         -1.5932    4.4937    3.7066 H         1 ACP         0.0886
     48 H48        -2.8098    5.8270    2.1160 H         1 ACP         0.4707
@<TRIPOS>BOND
     1    1    2 2
     2    1    3 1
     3    1    4 1
     4    1    8 1
     5    3   32 1
     6    4   33 1
     7    5    6 2
     8    5    7 1
     9    5    8 1
    10    5   12 1
    11    8   34 1
    12    8   35 1
    13    9   10 2
    14    9   11 1
    15    9   12 1
    16    9   13 1
    17   13   14 1
    18   14   15 1
    19   14   36 1
    20   14   37 1
    21   15   16 1
    22   15   17 1
    23   15   38 1
    24   16   21 1
    25   17   18 1
    26   17   19 1
    27   17   39 1
    28   18   40 1
    29   19   20 1
    30   19   21 1
    31   19   41 1
    32   20   42 1
    33   21   22 1
    34   21   43 1
    35   22   23 ar
    36   22   31 ar
    37   23   24 ar
    38   23   44 1
    39   24   25 ar
    40   25   26 ar
    41   25   31 ar
    42   26   27 1
    43   26   28 ar
    44   27   45 1
    45   27   46 1
    46   28   29 ar
    47   28   48 1
    48   29   30 ar
    49   29   47 1
    50   30   31 ar
@<TRIPOS>SUBSTRUCTURE
     1 ACP         1 GROUP 0 A     ****
@<TRIPOS>MOLECULE
[[5-(6-amino-1,8-dihydropurine-6,8-diylium-7-id-9-yl)-3,4-dihydroxy-tetrahydrofuran-2-yl]methoxy-oxido-phosphoryl]oxy-(phosphonomethyl)phosphinate
   48    50     1     0     0
SMALL
USER_CHARGES

@<TRIPOS>ATOM
      1 PG         -2.1895   -3.9623   -2.0002 P.3       1 ACP         1.6558
      2 O1G        -3.4265   -3.8012   -1.1687 O.2       1 ACP        -0.9020
      3 O2G        -2.0096   -5.4054   -2.7041 O.3       1 ACP        -0.8036
      4 O3G        -0.7941   -3.7463   -1.2154 O.3       1 ACP        -0.8036
      5 PB         -0.6407   -2.7954   -4.5632 P.3       1 ACP         1.4945
      6 O1B        -0.9010   -1.6988   -5.5698 O.co2     1 ACP        -0.8481
      7 O2B        -0.3855   -4.2264   -4.9764 O.co2     1 ACP        -0.8481
      8 C3B        -2.0662   -2.8077   -3.3848 C.3       1 ACP        -0.6636
      9 PA          2.1358   -2.2685   -3.6578 P.3       1 ACP         1.6023
     10 O1A         2.4970   -1.2612   -4.7281 O.co2     1 ACP        -0.8673
     11 O2A         2.6457   -3.6911   -3.7347 O.co2     1 ACP        -0.8673
     12 O3A         0.5094   -2.3101   -3.5139 O.3       1 ACP        -0.8150
     13 O5'         2.5238   -1.6632   -2.1888 O.3       1 ACP        -0.5522
     14 C5'         2.2816   -0.2918   -1.9206 C.3       1 ACP         0.2181
     15 C4'         2.7248    0.0226   -0.4980 C.3       1 ACP         0.0915
     16 O4'         2.4697    1.4219   -0.2462 O.3       1 ACP        -0.3675
     17 C3'         1.9404   -0.7419    0.5596 C.3       1 ACP         0.0748
     18 O3'         2.7418   -0.8086    1.7389 O.3       1 ACP        -0.5646
     19 C2'         0.7477    0.1630    0.7858 C.3       1 ACP         0.0804
     20 O2'         0.1373   -0.0577    2.0407 O.3       1 ACP        -0.5882
     21 C1'         1.3733    1.5427    0.6747 C.3       1 ACP         0.3809
     22 N9          0.4520    2.5240    0.1767 N.pl3     1 ACP        -0.4412
     23 C8          0.1798    2.8712   -1.2933 C.ar      1 ACP         0.1936
     24 N7         -0.7494    3.8400   -1.3610 N.2       1 ACP        -0.2746
     25 C5         -1.0173    4.0603   -0.0358 C.ar      1 ACP        -0.1386
     26 C6         -2.0105    5.0717    0.4241 C.ar      1 ACP         0.4778
     27 N6         -2.6723    5.7982   -0.4628 N.pl3     1 ACP        -0.8290
     28 N1         -2.1445    5.1522    1.7502 N.pl3     1 ACP        -0.6985
     29 C2         -1.3755    4.3143    2.6426 C.ar      1 ACP         0.6179
     30 N3         -0.5075    3.4292    2.2616 N.ar      1 ACP        -0.5105
     31 C4         -0.3667    3.3425    0.9070 C.ar      1 ACP         0.2753
     32 HOG2       -1.9569   -6.2059   -2.1398 H         1 ACP         0.4487
     33 HOG3       -0.5816   -4.3283   -0.4551 H         1 ACP         0.4487
     34 H3B1       -2.9598   -2.9384   -4.0054 H         1 ACP         0.1088
     35 H3B2       -2.1148   -1.7970   -2.9637 H         1 ACP         0.1088
     36 H5'1        2.8430    0.3138   -2.6391 H         1 ACP         0.0327
     37 H5'2        1.2126   -0.0907   -2.0421 H         1 ACP         0.0327
     38 H4'         3.8046   -0.1390   -0.4011 H         1 ACP         0.1275
     39 H3'         1.6787   -1.7627    0.2719 H         1 ACP         0.0637
     40 HO3'        3.5553   -1.2733    1.4913 H         1 ACP         0.4127
     41 H2'         0.0002   -0.0084   -0.0014 H         1 ACP         0.0692
     42 HO2'       -0.6132    0.5577    2.1063 H         1 ACP         0.4431
     43 H1'         1.7718    1.9211    1.6015 H         1 ACP         0.1199
     44 H8          0.6089    2.4651   -2.2147 H         1 ACP         0.2941
     45 HN61       -2.5055    5.6680   -1.4503 H         1 ACP         0.4754
     46 HN62       -3.3462    6.4841   -0.1542 H         1 ACP         0.4754
     47 H2         -1.5932    4.4937    3.7066 H         1 ACP         0.0886
     48 H48        -2.8098    5.8270    2.1160 H         1 ACP         0.4707
@<TRIPOS>BOND
     1    1    2 2
     2    1    3 1
     3    1    4 1
     4    1    8 1
     5    3   32 1
     6    4   33 1
     7    5    6 2
     8    5    7 1
     9    5    8 1
    10    5   12 1
    11    8   34 1
    12    8   35 1
    13    9   10 2
    14    9   11 1
    15    9   12 1
    16    9   13 1
    17   13   14 1
    18   14   15 1
    19   14   36 1
    20   14   37 1
    21   15   16 1
    22   15   17 1
    23   15   38 1
    24   16   21 1
    25   17   18 1
    26   17   19 1
    27   17   39 1
    28   18   40 1
    29   19   20 1
    30   19   21 1
    31   19   41 1
    32   20   42 1
    33   21   22 1
    34   21   43 1
    35   22   23 ar
    36   22   31 ar
    37   23   24 ar
    38   23   44 1
    39   24   25 ar
    40   25   26 ar
    41   25   31 ar
    42   26   27 1
    43   26   28 ar
    44   27   45 1
    45   27   46 1
    46   28   29 ar
    47   28   48 1
    48   29   30 ar
    49   29   47 1
    50   30   31 ar
@<TRIPOS>SUBSTRUCTURE
     1 ACP         1 GROUP 0 A     ****
@<TRIPOS>MOLECULE
[[5-(6-amino-1,8-dihydropurine-6,8-diylium-7-id-9-yl)-3,4-dihydroxy-tetrahydrofuran-2-yl]methoxy-oxido-phosphoryl]oxy-(phosphonomethyl)phosphinate
   48    50     1     0     0
SMALL
USER_CHARGES

@<TRIPOS>ATOM
      1 PG         -1.6364   -0.7284   -4.9947 P.3       1 ACP         1.6558
      2 O1G        -3.0053   -0.1175   -4.9845 O.2       1 ACP        -0.9020
      3 O2G        -1.5799   -2.2985   -5.3709 O.3       1 ACP        -0.8036
      4 O3G        -0.8295   -0.6437   -3.5977 O.3       1 ACP        -0.8036
      5 PB          1.2542   -0.5445   -6.3877 P.3       1 ACP         1.4945
      6 O1B         1.8795    0.3207   -7.4572 O.co2     1 ACP        -0.8481
      7 O2B         1.2306   -2.0526   -6.4810 O.co2     1 ACP        -0.8481
      8 C3B        -0.4936    0.0222   -6.1763 C.3       1 ACP        -0.6636
      9 PA          3.3317   -0.0541   -4.3262 P.3       1 ACP         1.6023
     10 O1A         4.1267    0.9765   -5.0986 O.co2     1 ACP        -0.8673
     11 O2A         3.8308   -1.4772   -4.2013 O.co2     1 ACP        -0.8673
     12 O3A         1.8123   -0.0905   -4.9242 O.3       1 ACP        -0.8150
     13 O5'         3.0199    0.5139   -2.8245 O.3       1 ACP        -0.5522
     14 C5'         2.2816   -0.2918   -1.9206 C.3       1 ACP         0.2181
     15 C4'         2.7248    0.0226   -0.4980 C.3       1 ACP         0.0915
     16 O4'         2.4697    1.4219   -0.2462 O.3       1 ACP        -0.3675
     17 C3'         1.9404   -0.7419    0.5596 C.3       1 ACP         0.0748
     18 O3'         2.7418   -0.8086    1.7389 O.3       1 ACP        -0.5646
     19 C2'         0.7477    0.1630    0.7858 C.3       1 ACP         0.0804
     20 O2'         0.1373   -0.0577    2.0407 O.3       1 ACP        -0.5882
     21 C1'         1.3733    1.5427    0.6747 C.3       1 ACP         0.3809
     22 N9          0.4520    2.5240    0.1767 N.pl3     1 ACP        -0.4412
     23 C8          0.1798    2.8712   -1.2933 C.ar      1 ACP         0.1936
     24 N7         -0.7494    3.8400   -1.3610 N.2       1 ACP        -0.2746
     25 C5         -1.0173    4.0603   -0.0358 C.ar      1 ACP        -0.1386
     26 C6         -2.0105    5.0717    0.4241 C.ar      1 ACP         0.4778
     27 N6         -2.6723    5.7982   -0.4628 N.pl3     1 ACP        -0.8290
     28 N1         -2.1445    5.1522    1.7502 N.pl3     1 ACP        -0.6985
     29 C2         -1.3755    4.3143    2.6426 C.ar      1 ACP         0.6179
     30 N3         -0.5075    3.4292    2.2616 N.ar      1 ACP        -0.5105
     31 C4         -0.3667    3.3425    0.9070 C.ar      1 ACP         0.2753
     32 HOG2       -2.0627   -2.9398   -4.8073 H         1 ACP         0.4487
     33 HOG3       -1.2137   -1.0669   -2.8006 H         1 ACP         0.4487
     34 H3B1       -0.9492   -0.0519   -7.1702 H         1 ACP         0.1088
     35 H3B2       -0.4346    1.0887   -5.9307 H         1 ACP         0.1088
     36 H5'1        1.2154   -0.0780   -2.0455 H         1 ACP         0.0327
     37 H5'2        2.4646   -1.3453   -2.1548 H         1 ACP         0.0327
     38 H4'         3.8046   -0.1390   -0.4011 H         1 ACP         0.1275
     39 H3'         1.6787   -1.7627    0.2719 H         1 ACP         0.0637
     40 HO3'        2.2231   -1.2979    2.3952 H         1 ACP         0.4127
     41 H2'         0.0002   -0.0084   -0.0014 H         1 ACP         0.0692
     42 HO2'       -0.6132    0.5577    2.1063 H         1 ACP         0.4431
     43 H1'         1.7718    1.9211    1.6015 H         1 ACP         0.1199
     44 H8          0.6089    2.4651   -2.2147 H         1 ACP         0.2941
     45 HN61       -2.5055    5.6680   -1.4503 H         1 ACP         0.4754
     46 HN62       -3.3462    6.4841   -0.1542 H         1 ACP         0.4754
     47 H2         -1.5932    4.4937    3.7066 H         1 ACP         0.0886
     48 H48        -2.8098    5.8270    2.1160 H         1 ACP         0.4707
@<TRIPOS>BOND
     1    1    2 2
     2    1    3 1
     3    1    4 1
     4    1    8 1
     5    3   32 1
     6    4   33 1
     7    5    6 2
     8    5    7 1
     9    5    8 1
    10    5   12 1
    11    8   34 1
    12    8   35 1
    13    9   10 2
    14    9   11 1
    15    9   12 1
    16    9   13 1
    17   13   14 1
    18   14   15 1
    19   14   36 1
    20   14   37 1
    21   15   16 1
    22   15   17 1
    23   15   38 1
    24   16   21 1
    25   17   18 1
    26   17   19 1
    27   17   39 1
    28   18   40 1
    29   19   20 1
    30   19   21 1
    31   19   41 1
    32   20   42 1
    33   21   22 1
    34   21   43 1
    35   22   23 ar
    36   22   31 ar
    37   23   24 ar
    38   23   44 1
    39   24   25 ar
    40   25   26 ar
    41   25   31 ar
    42   26   27 1
    43   26   28 ar
    44   27   45 1
    45   27   46 1
    46   28   29 ar
    47   28   48 1
    48   29   30 ar
    49   29   47 1
    50   30   31 ar
@<TRIPOS>SUBSTRUCTURE
     1 ACP         1 GROUP 0 A     ****
@<TRIPOS>MOLECULE
[[5-(6-amino-1,8-dihydropurine-6,8-diylium-7-id-9-yl)-3,4-dihydroxy-tetrahydrofuran-2-yl]methoxy-oxido-phosphoryl]oxy-(phosphonomethyl)phosphinate
   48    50     1     0     0
SMALL
USER_CHARGES

@<TRIPOS>ATOM
      1 PG          7.8115   -1.6197   -2.9824 P.3       1 ACP         1.6558
      2 O1G         8.7281   -2.2671   -1.9884 O.2       1 ACP        -0.9020
      3 O2G         8.5312   -1.0019   -4.2903 O.3       1 ACP        -0.8036
      4 O3G         6.9332   -0.3881   -2.4153 O.3       1 ACP        -0.8036
      5 PB          5.3139   -2.1795   -4.9261 P.3       1 ACP         1.4945
      6 O1B         4.4586   -3.3799   -5.2597 O.co2     1 ACP        -0.8481
      7 O2B         6.0488   -1.3924   -5.9863 O.co2     1 ACP        -0.8481
      8 C3B         6.5655   -2.7274   -3.6794 C.3       1 ACP        -0.6636
      9 PA          3.3317   -0.0541   -4.3262 P.3       1 ACP         1.6023
     10 O1A         2.1115   -0.7775   -4.8538 O.co2     1 ACP        -0.8673
     11 O2A         3.9771    1.0549   -5.1285 O.co2     1 ACP        -0.8673
     12 O3A         4.4753   -1.1630   -3.9655 O.3       1 ACP        -0.8150
     13 O5'         3.0199    0.5139   -2.8245 O.3       1 ACP        -0.5522
     14 C5'         2.2816   -0.2918   -1.9206 C.3       1 ACP         0.2181
     15 C4'         2.7248    0.0226   -0.4980 C.3       1 ACP         0.0915
     16 O4'         2.4697    1.4219   -0.2462 O.3       1 ACP        -0.3675
     17 C3'         1.9404   -0.7419    0.5596 C.3       1 ACP         0.0748
     18 O3'         2.7418   -0.8086    1.7389 O.3       1 ACP        -0.5646
     19 C2'         0.7477    0.1630    0.7858 C.3       1 ACP         0.0804
     20 O2'         0.1373   -0.0577    2.0407 O.3       1 ACP        -0.5882
     21 C1'         1.3733    1.5427    0.6747 C.3       1 ACP         0.3809
     22 N9          0.4520    2.5240    0.1767 N.pl3     1 ACP        -0.4412
     23 C8          0.1798    2.8712   -1.2933 C.ar      1 ACP         0.1936
     24 N7         -0.7494    3.8400   -1.3610 N.2       1 ACP        -0.2746
     25 C5         -1.0173    4.0603   -0.0358 C.ar      1 ACP        -0.1386
     26 C6         -2.0105    5.0717    0.4241 C.ar      1 ACP         0.4778
     27 N6         -2.6723    5.7982   -0.4628 N.pl3     1 ACP        -0.8290
     28 N1         -2.1445    5.1522    1.7502 N.pl3     1 ACP        -0.6985
     29 C2         -1.3755    4.3143    2.6426 C.ar      1 ACP         0.6179
     30 N3         -0.5075    3.4292    2.2616 N.ar      1 ACP        -0.5105
     31 C4         -0.3667    3.3425    0.9070 C.ar      1 ACP         0.2753
     32 HOG2        9.2034   -0.2970   -4.1743 H         1 ACP         0.4487
     33 HOG3        7.3950    0.3974   -2.0523 H         1 ACP         0.4487
     34 H3B1        7.0927   -3.5692   -4.1422 H         1 ACP         0.1088
     35 H3B2        5.9920   -3.1332   -2.8383 H         1 ACP         0.1088
     36 H5'1        1.2154   -0.0780   -2.0455 H         1 ACP         0.0327
     37 H5'2        2.4646   -1.3453   -2.1548 H         1 ACP         0.0327
     38 H4'         3.8046   -0.1390   -0.4011 H         1 ACP         0.1275
     39 H3'         1.6787   -1.7627    0.2719 H         1 ACP         0.0637
     40 HO3'        2.2231   -1.2979    2.3952 H         1 ACP         0.4127
     41 H2'         0.0002   -0.0084   -0.0014 H         1 ACP         0.0692
     42 HO2'       -0.1554   -0.9852    2.0577 H         1 ACP         0.4431
     43 H1'         1.7718    1.9211    1.6015 H         1 ACP         0.1199
     44 H8          0.6089    2.4651   -2.2147 H         1 ACP         0.2941
     45 HN61       -2.5055    5.6680   -1.4503 H         1 ACP         0.4754
     46 HN62       -3.3462    6.4841   -0.1542 H         1 ACP         0.4754
     47 H2         -1.5932    4.4937    3.7066 H         1 ACP         0.0886
     48 H48        -2.8098    5.8270    2.1160 H         1 ACP         0.4707
@<TRIPOS>BOND
     1    1    2 2
     2    1    3 1
     3    1    4 1
     4    1    8 1
     5    3   32 1
     6    4   33 1
     7    5    6 2
     8    5    7 1
     9    5    8 1
    10    5   12 1
    11    8   34 1
    12    8   35 1
    13    9   10 2
    14    9   11 1
    15    9   12 1
    16    9   13 1
    17   13   14 1
    18   14   15 1
    19   14   36 1
    20   14   37 1
    21   15   16 1
    22   15   17 1
    23   15   38 1
    24   16   21 1
    25   17   18 1
    26   17   19 1
    27   17   39 1
    28   18   40 1
    29   19   20 1
    30   19   21 1
    31   19   41 1
    32   20   42 1
    33   21   22 1
    34   21   43 1
    35   22   23 ar
    36   22   31 ar
    37   23   24 ar
    38   23   44 1
    39   24   25 ar
    40   25   26 ar
    41   25   31 ar
    42   26   27 1
    43   26   28 ar
    44   27   45 1
    45   27   46 1
    46   28   29 ar
    47   28   48 1
    48   29   30 ar
    49   29   47 1
    50   30   31 ar
@<TRIPOS>SUBSTRUCTURE
     1 ACP         1 GROUP 0 A     ****
@<TRIPOS>MOLECULE
[[5-(6-amino-1,8-dihydropurine-6,8-diylium-7-id-9-yl)-3,4-dihydroxy-tetrahydrofuran-2-yl]methoxy-oxido-phosphoryl]oxy-(phosphonomethyl)phosphinate
   48    50     1     0     0
SMALL
USER_CHARGES

@<TRIPOS>ATOM
      1 PG          6.4598   -0.8367   -5.1896 P.3       1 ACP         1.6558
      2 O1G         6.1930   -0.8281   -3.7145 O.2       1 ACP        -0.9020
      3 O2G         6.9883   -2.2399   -5.7911 O.3       1 ACP        -0.8036
      4 O3G         7.5571    0.2328   -5.7014 O.3       1 ACP        -0.8036
      5 PB          3.4755   -1.4893   -6.1885 P.3       1 ACP         1.4945
      6 O1B         3.8620   -2.8895   -6.6052 O.co2     1 ACP        -0.8481
      7 O2B         2.4012   -0.7022   -6.9026 O.co2     1 ACP        -0.8481
      8 C3B         5.0158   -0.4657   -6.2107 C.3       1 ACP        -0.6636
      9 PA          2.1358   -2.2685   -3.6578 P.3       1 ACP         1.6023
     10 O1A         2.4845   -3.7405   -3.7033 O.co2     1 ACP        -0.8673
     11 O2A         0.7432   -1.7950   -4.0135 O.co2     1 ACP        -0.8673
     12 O3A         3.2094   -1.4534   -4.5800 O.3       1 ACP        -0.8150
     13 O5'         2.5238   -1.6632   -2.1888 O.3       1 ACP        -0.5522
     14 C5'         2.2816   -0.2918   -1.9206 C.3       1 ACP         0.2181
     15 C4'         2.7248    0.0226   -0.4980 C.3       1 ACP         0.0915
     16 O4'         2.4697    1.4219   -0.2462 O.3       1 ACP        -0.3675
     17 C3'         1.9404   -0.7419    0.5596 C.3       1 ACP         0.0748
     18 O3'         2.7418   -0.8086    1.7389 O.3       1 ACP        -0.5646
     19 C2'         0.7477    0.1630    0.7858 C.3       1 ACP         0.0804
     20 O2'         0.1373   -0.0577    2.0407 O.3       1 ACP        -0.5882
     21 C1'         1.3733    1.5427    0.6747 C.3       1 ACP         0.3809
     22 N9          0.4520    2.5240    0.1767 N.pl3     1 ACP        -0.4412
     23 C8          0.1798    2.8712   -1.2933 C.ar      1 ACP         0.1936
     24 N7         -0.7494    3.8400   -1.3610 N.2       1 ACP        -0.2746
     25 C5         -1.0173    4.0603   -0.0358 C.ar      1 ACP        -0.1386
     26 C6         -2.0105    5.0717    0.4241 C.ar      1 ACP         0.4778
     27 N6         -2.6723    5.7982   -0.4628 N.pl3     1 ACP        -0.8290
     28 N1         -2.1445    5.1522    1.7502 N.pl3     1 ACP        -0.6985
     29 C2         -1.3755    4.3143    2.6426 C.ar      1 ACP         0.6179
     30 N3         -0.5075    3.4292    2.2616 N.ar      1 ACP        -0.5105
     31 C4         -0.3667    3.3425    0.9070 C.ar      1 ACP         0.2753
     32 HOG2        7.8274   -2.6168   -5.4507 H         1 ACP         0.4487
     33 HOG3        8.4710    0.1815   -5.3490 H         1 ACP         0.4487
     34 H3B1        4.6947    0.5544   -5.9717 H         1 ACP         0.1088
     35 H3B2        5.3547   -0.4579   -7.2530 H         1 ACP         0.1088
     36 H5'1        2.8430    0.3138   -2.6391 H         1 ACP         0.0327
     37 H5'2        1.2126   -0.0907   -2.0421 H         1 ACP         0.0327
     38 H4'         3.8046   -0.1390   -0.4011 H         1 ACP         0.1275
     39 H3'         1.6787   -1.7627    0.2719 H         1 ACP         0.0637
     40 HO3'        2.2231   -1.2979    2.3952 H         1 ACP         0.4127
     41 H2'         0.0002   -0.0084   -0.0014 H         1 ACP         0.0692
     42 HO2'       -0.6132    0.5577    2.1063 H         1 ACP         0.4431
     43 H1'         1.7718    1.9211    1.6015 H         1 ACP         0.1199
     44 H8          0.6089    2.4651   -2.2147 H         1 ACP         0.2941
     45 HN61       -2.5055    5.6680   -1.4503 H         1 ACP         0.4754
     46 HN62       -3.3462    6.4841   -0.1542 H         1 ACP         0.4754
     47 H2         -1.5932    4.4937    3.7066 H         1 ACP         0.0886
     48 H48        -2.8098    5.8270    2.1160 H         1 ACP         0.4707
@<TRIPOS>BOND
     1    1    2 2
     2    1    3 1
     3    1    4 1
     4    1    8 1
     5    3   32 1
     6    4   33 1
     7    5    6 2
     8    5    7 1
     9    5    8 1
    10    5   12 1
    11    8   34 1
    12    8   35 1
    13    9   10 2
    14    9   11 1
    15    9   12 1
    16    9   13 1
    17   13   14 1
    18   14   15 1
    19   14   36 1
    20   14   37 1
    21   15   16 1
    22   15   17 1
    23   15   38 1
    24   16   21 1
    25   17   18 1
    26   17   19 1
    27   17   39 1
    28   18   40 1
    29   19   20 1
    30   19   21 1
    31   19   41 1
    32   20   42 1
    33   21   22 1
    34   21   43 1
    35   22   23 ar
    36   22   31 ar
    37   23   24 ar
    38   23   44 1
    39   24   25 ar
    40   25   26 ar
    41   25   31 ar
    42   26   27 1
    43   26   28 ar
    44   27   45 1
    45   27   46 1
    46   28   29 ar
    47   28   48 1
    48   29   30 ar
    49   29   47 1
    50   30   31 ar
@<TRIPOS>SUBSTRUCTURE
     1 ACP         1 GROUP 0 A     ****
@<TRIPOS>MOLECULE
[[5-(6-amino-1,8-dihydropurine-6,8-diylium-7-id-9-yl)-3,4-dihydroxy-tetrahydrofuran-2-yl]methoxy-oxido-phosphoryl]oxy-(phosphonomethyl)phosphinate
   48    50     1     0     0
SMALL
USER_CHARGES

@<TRIPOS>ATOM
      1 PG          3.8829   -4.5467   -4.6710 P.3       1 ACP         1.6558
      2 O1G         2.4226   -4.2368   -4.5345 O.2       1 ACP        -0.9020
      3 O2G         4.2422   -5.7774   -5.6541 O.3       1 ACP        -0.8036
      4 O3G         4.6423   -4.9251   -3.2963 O.3       1 ACP        -0.8036
      5 PB          5.0047   -1.5398   -4.4985 P.3       1 ACP         1.4945
      6 O1B         5.9159   -0.6817   -5.3453 O.co2     1 ACP        -0.8481
      7 O2B         5.2679   -1.7937   -3.0323 O.co2     1 ACP        -0.8481
      8 C3B         4.8754   -3.1874   -5.3289 C.3       1 ACP        -0.6636
      9 PA          2.7380    0.3741   -4.4295 P.3       1 ACP         1.6023
     10 O1A         1.2513    0.2198   -4.6674 O.co2     1 ACP        -0.8673
     11 O2A         3.5254    1.4501   -5.1452 O.co2     1 ACP        -0.8673
     12 O3A         3.4589   -1.0647   -4.7080 O.3       1 ACP        -0.8150
     13 O5'         3.0199    0.5139   -2.8245 O.3       1 ACP        -0.5522
     14 C5'         2.2816   -0.2918   -1.9206 C.3       1 ACP         0.2181
     15 C4'         2.7248    0.0226   -0.4980 C.3       1 ACP         0.0915
     16 O4'         2.4697    1.4219   -0.2462 O.3       1 ACP        -0.3675
     17 C3'         1.9404   -0.7419    0.5596 C.3       1 ACP         0.0748
     18 O3'         2.7418   -0.8086    1.7389 O.3       1 ACP        -0.5646
     19 C2'         0.7477    0.1630    0.7858 C.3       1 ACP         0.0804
     20 O2'         0.1373   -0.0577    2.0407 O.3       1 ACP        -0.5882
     21 C1'         1.3733    1.5427    0.6747 C.3       1 ACP         0.3809
     22 N9          0.4520    2.5240    0.1767 N.pl3     1 ACP        -0.4412
     23 C8         -0.3054    2.4845   -1.1576 C.ar      1 ACP         0.1936
     24 N7         -1.0755    3.5806   -1.2691 N.2       1 ACP        -0.2746
     25 C5         -0.8043    4.2306   -0.0942 C.ar      1 ACP        -0.1386
     26 C6         -1.4324    5.5335    0.2646 C.ar      1 ACP         0.4778
     27 N6         -2.2885    6.1054   -0.5675 N.pl3     1 ACP        -0.8290
     28 N1         -1.0537    6.0229    1.4478 N.pl3     1 ACP        -0.6985
     29 C2         -0.1096    5.3242    2.2908 C.ar      1 ACP         0.6179
     30 N3          0.4468    4.1904    1.9960 N.ar      1 ACP        -0.5105
     31 C4          0.0631    3.6855    0.7877 C.ar      1 ACP         0.2753
     32 HOG2        3.8839   -6.6676   -5.4514 H         1 ACP         0.4487
     33 HOG3        4.3365   -5.7030   -2.7831 H         1 ACP         0.4487
     34 H3B1        5.9053   -3.5480   -5.4292 H         1 ACP         0.1088
     35 H3B2        4.5081   -2.9842   -6.3412 H         1 ACP         0.1088
     36 H5'1        1.2154   -0.0780   -2.0455 H         1 ACP         0.0327
     37 H5'2        2.4646   -1.3453   -2.1548 H         1 ACP         0.0327
     38 H4'         3.8046   -0.1390   -0.4011 H         1 ACP         0.1275
     39 H3'         1.6787   -1.7627    0.2719 H         1 ACP         0.0637
     40 HO3'        2.2231   -1.2979    2.3952 H         1 ACP         0.4127
     41 H2'         0.0002   -0.0084   -0.0014 H         1 ACP         0.0692
     42 HO2'       -0.6132    0.5577    2.1063 H         1 ACP         0.4431
     43 H1'         1.7718    1.9211    1.6015 H         1 ACP         0.1199
     44 H8         -0.2991    1.7413   -1.9611 H         1 ACP         0.2941
     45 HN61       -2.5167    5.6603   -1.4447 H         1 ACP         0.4754
     46 HN62       -2.7159    6.9882   -0.3270 H         1 ACP         0.4754
     47 H2          0.1059    5.8491    3.2340 H         1 ACP         0.0886
     48 H48        -1.4532    6.9099    1.7401 H         1 ACP         0.4707
@<TRIPOS>BOND
     1    1    2 2
     2    1    3 1
     3    1    4 1
     4    1    8 1
     5    3   32 1
     6    4   33 1
     7    5    6 2
     8    5    7 1
     9    5    8 1
    10    5   12 1
    11    8   34 1
    12    8   35 1
    13    9   10 2
    14    9   11 1
    15    9   12 1
    16    9   13 1
    17   13   14 1
    18   14   15 1
    19   14   36 1
    20   14   37 1
    21   15   16 1
    22   15   17 1
    23   15   38 1
    24   16   21 1
    25   17   18 1
    26   17   19 1
    27   17   39 1
    28   18   40 1
    29   19   20 1
    30   19   21 1
    31   19   41 1
    32   20   42 1
    33   21   22 1
    34   21   43 1
    35   22   23 ar
    36   22   31 ar
    37   23   24 ar
    38   23   44 1
    39   24   25 ar
    40   25   26 ar
    41   25   31 ar
    42   26   27 1
    43   26   28 ar
    44   27   45 1
    45   27   46 1
    46   28   29 ar
    47   28   48 1
    48   29   30 ar
    49   29   47 1
    50   30   31 ar
@<TRIPOS>SUBSTRUCTURE
     1 ACP         1 GROUP 0 A     ****
@<TRIPOS>MOLECULE
[[5-(6-amino-1,8-dihydropurine-6,8-diylium-7-id-9-yl)-3,4-dihydroxy-tetrahydrofuran-2-yl]methoxy-oxido-phosphoryl]oxy-(phosphonomethyl)phosphinate
   48    50     1     0     0
SMALL
USER_CHARGES

@<TRIPOS>ATOM
      1 PG          3.2785    2.4336   -5.4577 P.3       1 ACP         1.6558
      2 O1G         3.1994    3.5571   -6.4471 O.2       1 ACP        -0.9020
      3 O2G         1.9273    1.5649   -5.2846 O.3       1 ACP        -0.8036
      4 O3G         3.6476    2.8666   -3.9458 O.3       1 ACP        -0.8036
      5 PB          4.8276   -0.3014   -4.7869 P.3       1 ACP         1.4945
      6 O1B         5.2281    0.1967   -3.4175 O.co2     1 ACP        -0.8481
      7 O2B         5.6892   -1.2538   -5.5831 O.co2     1 ACP        -0.8481
      8 C3B         4.5267    1.1856   -5.8449 C.3       1 ACP        -0.6636
      9 PA          2.6171   -2.0488   -3.8563 P.3       1 ACP         1.6023
     10 O1A         3.4076   -3.3191   -4.0840 O.co2     1 ACP        -0.8673
     11 O2A         1.1208   -2.0213   -4.0811 O.co2     1 ACP        -0.8673
     12 O3A         3.2937   -0.8528   -4.7390 O.3       1 ACP        -0.8150
     13 O5'         2.9203   -1.4822   -2.3523 O.3       1 ACP        -0.5522
     14 C5'         2.2816   -0.2918   -1.9206 C.3       1 ACP         0.2181
     15 C4'         2.7248    0.0226   -0.4980 C.3       1 ACP         0.0915
     16 O4'         2.4697    1.4219   -0.2462 O.3       1 ACP        -0.3675
     17 C3'         1.9404   -0.7419    0.5596 C.3       1 ACP         0.0748
     18 O3'         2.7418   -0.8086    1.7389 O.3       1 ACP        -0.5646
     19 C2'         0.7477    0.1630    0.7858 C.3       1 ACP         0.0804
     20 O2'         0.1373   -0.0577    2.0407 O.3       1 ACP        -0.5882
     21 C1'         1.3733    1.5427    0.6747 C.3       1 ACP         0.3809
     22 N9          0.4520    2.5240    0.1767 N.pl3     1 ACP        -0.4412
     23 C8          0.1798    2.8712   -1.2933 C.ar      1 ACP         0.1936
     24 N7         -0.7494    3.8400   -1.3610 N.2       1 ACP        -0.2746
     25 C5         -1.0173    4.0603   -0.0358 C.ar      1 ACP        -0.1386
     26 C6         -2.0105    5.0717    0.4241 C.ar      1 ACP         0.4778
     27 N6         -2.6723    5.7982   -0.4628 N.pl3     1 ACP        -0.8290
     28 N1         -2.1445    5.1522    1.7502 N.pl3     1 ACP        -0.6985
     29 C2         -1.3755    4.3143    2.6426 C.ar      1 ACP         0.6179
     30 N3         -0.5075    3.4292    2.2616 N.ar      1 ACP        -0.5105
     31 C4         -0.3667    3.3425    0.9070 C.ar      1 ACP         0.2753
     32 HOG2        1.1083    2.0147   -4.9863 H         1 ACP         0.4487
     33 HOG3        3.0551    3.4878   -3.4714 H         1 ACP         0.4487
     34 H3B1        4.3056    0.7953   -6.8447 H         1 ACP         0.1088
     35 H3B2        5.4892    1.7056   -5.9107 H         1 ACP         0.1088
     36 H5'1        2.5581    0.5234   -2.5967 H         1 ACP         0.0327
     37 H5'2        1.1975   -0.4371   -1.9608 H         1 ACP         0.0327
     38 H4'         3.8046   -0.1390   -0.4011 H         1 ACP         0.1275
     39 H3'         1.6787   -1.7627    0.2719 H         1 ACP         0.0637
     40 HO3'        2.2231   -1.2979    2.3952 H         1 ACP         0.4127
     41 H2'         0.0002   -0.0084   -0.0014 H         1 ACP         0.0692
     42 HO2'       -0.6132    0.5577    2.1063 H         1 ACP         0.4431
     43 H1'         1.7718    1.9211    1.6015 H         1 ACP         0.1199
     44 H8          0.6089    2.4651   -2.2147 H         1 ACP         0.2941
     45 HN61       -2.5055    5.6680   -1.4503 H         1 ACP         0.4754
     46 HN62       -3.3462    6.4841   -0.1542 H         1 ACP         0.4754
     47 H2         -1.5932    4.4937    3.7066 H         1 ACP         0.0886
     48 H48        -2.8098    5.8270    2.1160 H         1 ACP         0.4707
@<TRIPOS>BOND
     1    1    2 2
     2    1    3 1
     3    1    4 1
     4    1    8 1
     5    3   32 1
     6    4   33 1
     7    5    6 2
     8    5    7 1
     9    5    8 1
    10    5   12 1
    11    8   34 1
    12    8   35 1
    13    9   10 2
    14    9   11 1
    15    9   12 1
    16    9   13 1
    17   13   14 1
    18   14   15 1
    19   14   36 1
    20   14   37 1
    21   15   16 1
    22   15   17 1
    23   15   38 1
    24   16   21 1
    25   17   18 1
    26   17   19 1
    27   17   39 1
    28   18   40 1
    29   19   20 1
    30   19   21 1
    31   19   41 1
    32   20   42 1
    33   21   22 1
    34   21   43 1
    35   22   23 ar
    36   22   31 ar
    37   23   24 ar
    38   23   44 1
    39   24   25 ar
    40   25   26 ar
    41   25   31 ar
    42   26   27 1
    43   26   28 ar
    44   27   45 1
    45   27   46 1
    46   28   29 ar
    47   28   48 1
    48   29   30 ar
    49   29   47 1
    50   30   31 ar
@<TRIPOS>SUBSTRUCTURE
     1 ACP         1 GROUP 0 A     ****
@<TRIPOS>MOLECULE
[[5-(6-amino-1,8-dihydropurine-6,8-diylium-7-id-9-yl)-3,4-dihydroxy-tetrahydrofuran-2-yl]methoxy-oxido-phosphoryl]oxy-(phosphonomethyl)phosphinate
   48    50     1     0     0
SMALL
USER_CHARGES

@<TRIPOS>ATOM
      1 PG          0.2238   -3.0894   -4.8992 P.3       1 ACP         1.6558
      2 O1G         1.3801   -3.6566   -4.1320 O.2       1 ACP        -0.9020
      3 O2G        -0.8992   -2.3420   -4.0101 O.3       1 ACP        -0.8036
      4 O3G        -0.6255   -4.1580   -5.7631 O.3       1 ACP        -0.8036
      5 PB          1.5391   -0.2631   -5.6817 P.3       1 ACP         1.4945
      6 O1B         0.6389    0.4833   -4.7245 O.co2     1 ACP        -0.8481
      7 O2B         2.0379    0.3536   -6.9679 O.co2     1 ACP        -0.8481
      8 C3B         0.6815   -1.8413   -6.1232 C.3       1 ACP        -0.6636
      9 PA          3.9531   -0.2088   -3.9567 P.3       1 ACP         1.6023
     10 O1A         4.6365    0.8495   -4.7954 O.co2     1 ACP        -0.8673
     11 O2A         4.7595   -1.2976   -3.2826 O.co2     1 ACP        -0.8673
     12 O3A         2.7887   -0.9130   -4.8599 O.3       1 ACP        -0.8150
     13 O5'         3.0199    0.5139   -2.8245 O.3       1 ACP        -0.5522
     14 C5'         2.2816   -0.2918   -1.9206 C.3       1 ACP         0.2181
     15 C4'         2.7248    0.0226   -0.4980 C.3       1 ACP         0.0915
     16 O4'         2.4697    1.4219   -0.2462 O.3       1 ACP        -0.3675
     17 C3'         1.9404   -0.7419    0.5596 C.3       1 ACP         0.0748
     18 O3'         2.7418   -0.8086    1.7389 O.3       1 ACP        -0.5646
     19 C2'         0.7477    0.1630    0.7858 C.3       1 ACP         0.0804
     20 O2'         0.1373   -0.0577    2.0407 O.3       1 ACP        -0.5882
     21 C1'         1.3733    1.5427    0.6747 C.3       1 ACP         0.3809
     22 N9          0.4520    2.5240    0.1767 N.pl3     1 ACP        -0.4412
     23 C8          0.1798    2.8712   -1.2933 C.ar      1 ACP         0.1936
     24 N7         -0.7494    3.8400   -1.3610 N.2       1 ACP        -0.2746
     25 C5         -1.0173    4.0603   -0.0358 C.ar      1 ACP        -0.1386
     26 C6         -2.0105    5.0717    0.4241 C.ar      1 ACP         0.4778
     27 N6         -2.6723    5.7982   -0.4628 N.pl3     1 ACP        -0.8290
     28 N1         -2.1445    5.1522    1.7502 N.pl3     1 ACP        -0.6985
     29 C2         -1.3755    4.3143    2.6426 C.ar      1 ACP         0.6179
     30 N3         -0.5075    3.4292    2.2616 N.ar      1 ACP        -0.5105
     31 C4         -0.3667    3.3425    0.9070 C.ar      1 ACP         0.2753
     32 HOG2       -1.3710   -2.8496   -3.3161 H         1 ACP         0.4487
     33 HOG3       -1.0610   -4.9048   -5.2998 H         1 ACP         0.4487
     34 H3B1        1.3234   -2.3268   -6.8669 H         1 ACP         0.1088
     35 H3B2       -0.2393   -1.5469   -6.6395 H         1 ACP         0.1088
     36 H5'1        1.2154   -0.0780   -2.0455 H         1 ACP         0.0327
     37 H5'2        2.4646   -1.3453   -2.1548 H         1 ACP         0.0327
     38 H4'         3.8046   -0.1390   -0.4011 H         1 ACP         0.1275
     39 H3'         1.6787   -1.7627    0.2719 H         1 ACP         0.0637
     40 HO3'        2.2231   -1.2979    2.3952 H         1 ACP         0.4127
     41 H2'         0.0002   -0.0084   -0.0014 H         1 ACP         0.0692
     42 HO2'       -0.6132    0.5577    2.1063 H         1 ACP         0.4431
     43 H1'         1.7718    1.9211    1.6015 H         1 ACP         0.1199
     44 H8          0.6089    2.4651   -2.2147 H         1 ACP         0.2941
     45 HN61       -2.5055    5.6680   -1.4503 H         1 ACP         0.4754
     46 HN62       -3.3462    6.4841   -0.1542 H         1 ACP         0.4754
     47 H2         -1.5932    4.4937    3.7066 H         1 ACP         0.0886
     48 H48        -2.8098    5.8270    2.1160 H         1 ACP         0.4707
@<TRIPOS>BOND
     1    1    2 2
     2    1    3 1
     3    1    4 1
     4    1    8 1
     5    3   32 1
     6    4   33 1
     7    5    6 2
     8    5    7 1
     9    5    8 1
    10    5   12 1
    11    8   34 1
    12    8   35 1
    13    9   10 2
    14    9   11 1
    15    9   12 1
    16    9   13 1
    17   13   14 1
    18   14   15 1
    19   14   36 1
    20   14   37 1
    21   15   16 1
    22   15   17 1
    23   15   38 1
    24   16   21 1
    25   17   18 1
    26   17   19 1
    27   17   39 1
    28   18   40 1
    29   19   20 1
    30   19   21 1
    31   19   41 1
    32   20   42 1
    33   21   22 1
    34   21   43 1
    35   22   23 ar
    36   22   31 ar
    37   23   24 ar
    38   23   44 1
    39   24   25 ar
    40   25   26 ar
    41   25   31 ar
    42   26   27 1
    43   26   28 ar
    44   27   45 1
    45   27   46 1
    46   28   29 ar
    47   28   48 1
    48   29   30 ar
    49   29   47 1
    50   30   31 ar
@<TRIPOS>SUBSTRUCTURE
     1 ACP         1 GROUP 0 A     ****
@<TRIPOS>MOLECULE
[[5-(6-amino-1,8-dihydropurine-6,8-diylium-7-id-9-yl)-3,4-dihydroxy-tetrahydrofuran-2-yl]methoxy-oxido-phosphoryl]oxy-(phosphonomethyl)phosphinate
   48    50     1     0     0
SMALL
USER_CHARGES

@<TRIPOS>ATOM
      1 PG          6.6770    1.1885   -3.7861 P.3       1 ACP         1.6558
      2 O1G         6.4078    2.1966   -4.8626 O.2       1 ACP        -0.9020
      3 O2G         5.5860    1.1362   -2.5957 O.3       1 ACP        -0.8036
      4 O3G         8.0809    1.3653   -3.0067 O.3       1 ACP        -0.8036
      5 PB          5.3154   -1.3584   -5.1966 P.3       1 ACP         1.4945
      6 O1B         5.7535   -2.7661   -5.5282 O.co2     1 ACP        -0.8481
      7 O2B         4.7863   -0.4093   -6.2467 O.co2     1 ACP        -0.8481
      8 C3B         6.7404   -0.5220   -4.3655 C.3       1 ACP        -0.6636
      9 PA          2.8590   -2.1285   -3.7205 P.3       1 ACP         1.6023
     10 O1A         3.0780   -3.6257   -3.7547 O.co2     1 ACP        -0.8673
     11 O2A         1.8554   -1.4750   -4.6455 O.co2     1 ACP        -0.8673
     12 O3A         4.3020   -1.3896   -3.9195 O.3       1 ACP        -0.8150
     13 O5'         2.5238   -1.6632   -2.1888 O.3       1 ACP        -0.5522
     14 C5'         2.2816   -0.2918   -1.9206 C.3       1 ACP         0.2181
     15 C4'         2.7248    0.0226   -0.4980 C.3       1 ACP         0.0915
     16 O4'         2.4697    1.4219   -0.2462 O.3       1 ACP        -0.3675
     17 C3'         1.9404   -0.7419    0.5596 C.3       1 ACP         0.0748
     18 O3'         2.7418   -0.8086    1.7389 O.3       1 ACP        -0.5646
     19 C2'         0.7477    0.1630    0.7858 C.3       1 ACP         0.0804
     20 O2'         0.1373   -0.0577    2.0407 O.3       1 ACP        -0.5882
     21 C1'         1.3733    1.5427    0.6747 C.3       1 ACP         0.3809
     22 N9          0.4520    2.5240    0.1767 N.pl3     1 ACP        -0.4412
     23 C8          0.1798    2.8712   -1.2933 C.ar      1 ACP         0.1936
     24 N7         -0.7494    3.8400   -1.3610 N.2       1 ACP        -0.2746
     25 C5         -1.0173    4.0603   -0.0358 C.ar      1 ACP        -0.1386
     26 C6         -2.0105    5.0717    0.4241 C.ar      1 ACP         0.4778
     27 N6         -2.6723    5.7982   -0.4628 N.pl3     1 ACP        -0.8290
     28 N1         -2.1445    5.1522    1.7502 N.pl3     1 ACP        -0.6985
     29 C2         -1.3755    4.3143    2.6426 C.ar      1 ACP         0.6179
     30 N3         -0.5075    3.4292    2.2616 N.ar      1 ACP        -0.5105
     31 C4         -0.3667    3.3425    0.9070 C.ar      1 ACP         0.2753
     32 HOG2        5.4306    1.9417   -2.0580 H         1 ACP         0.4487
     33 HOG3        8.2540    2.2010   -2.5233 H         1 ACP         0.4487
     34 H3B1        7.5788   -0.6032   -5.0665 H         1 ACP         0.1088
     35 H3B2        6.9880   -1.1444   -3.4980 H         1 ACP         0.1088
     36 H5'1        2.8430    0.3138   -2.6391 H         1 ACP         0.0327
     37 H5'2        1.2126   -0.0907   -2.0421 H         1 ACP         0.0327
     38 H4'         3.8046   -0.1390   -0.4011 H         1 ACP         0.1275
     39 H3'         1.6787   -1.7627    0.2719 H         1 ACP         0.0637
     40 HO3'        2.2231   -1.2979    2.3952 H         1 ACP         0.4127
     41 H2'         0.0002   -0.0084   -0.0014 H         1 ACP         0.0692
     42 HO2'       -0.6132    0.5577    2.1063 H         1 ACP         0.4431
     43 H1'         1.7718    1.9211    1.6015 H         1 ACP         0.1199
     44 H8          0.6089    2.4651   -2.2147 H         1 ACP         0.2941
     45 HN61       -2.5055    5.6680   -1.4503 H         1 ACP         0.4754
     46 HN62       -3.3462    6.4841   -0.1542 H         1 ACP         0.4754
     47 H2         -1.5932    4.4937    3.7066 H         1 ACP         0.0886
     48 H48        -2.8098    5.8270    2.1160 H         1 ACP         0.4707
@<TRIPOS>BOND
     1    1    2 2
     2    1    3 1
     3    1    4 1
     4    1    8 1
     5    3   32 1
     6    4   33 1
     7    5    6 2
     8    5    7 1
     9    5    8 1
    10    5   12 1
    11    8   34 1
    12    8   35 1
    13    9   10 2
    14    9   11 1
    15    9   12 1
    16    9   13 1
    17   13   14 1
    18   14   15 1
    19   14   36 1
    20   14   37 1
    21   15   16 1
    22   15   17 1
    23   15   38 1
    24   16   21 1
    25   17   18 1
    26   17   19 1
    27   17   39 1
    28   18   40 1
    29   19   20 1
    30   19   21 1
    31   19   41 1
    32   20   42 1
    33   21   22 1
    34   21   43 1
    35   22   23 ar
    36   22   31 ar
    37   23   24 ar
    38   23   44 1
    39   24   25 ar
    40   25   26 ar
    41   25   31 ar
    42   26   27 1
    43   26   28 ar
    44   27   45 1
    45   27   46 1
    46   28   29 ar
    47   28   48 1
    48   29   30 ar
    49   29   47 1
    50   30   31 ar
@<TRIPOS>SUBSTRUCTURE
     1 ACP         1 GROUP 0 A     ****
@<TRIPOS>MOLECULE
[[5-(6-amino-1,8-dihydropurine-6,8-diylium-7-id-9-yl)-3,4-dihydroxy-tetrahydrofuran-2-yl]methoxy-oxido-phosphoryl]oxy-(phosphonomethyl)phosphinate
   48    50     1     0     0
SMALL
USER_CHARGES

@<TRIPOS>ATOM
      1 PG          5.0387    1.2890   -5.7795 P.3       1 ACP         1.6558
      2 O1G         4.5767    1.5894   -4.3853 O.2       1 ACP        -0.9020
      3 O2G         6.5541    1.7343   -6.1195 O.3       1 ACP        -0.8036
      4 O3G         4.1695    1.9693   -6.9590 O.3       1 ACP        -0.8036
      5 PB          3.4755   -1.4893   -6.1885 P.3       1 ACP         1.4945
      6 O1B         3.8620   -2.8895   -6.6052 O.co2     1 ACP        -0.8481
      7 O2B         2.4012   -0.7022   -6.9026 O.co2     1 ACP        -0.8481
      8 C3B         5.0158   -0.4657   -6.2107 C.3       1 ACP        -0.6636
      9 PA          2.1358   -2.2685   -3.6578 P.3       1 ACP         1.6023
     10 O1A         2.4845   -3.7405   -3.7033 O.co2     1 ACP        -0.8673
     11 O2A         0.7432   -1.7950   -4.0135 O.co2     1 ACP        -0.8673
     12 O3A         3.2094   -1.4534   -4.5800 O.3       1 ACP        -0.8150
     13 O5'         2.5238   -1.6632   -2.1888 O.3       1 ACP        -0.5522
     14 C5'         2.2816   -0.2918   -1.9206 C.3       1 ACP         0.2181
     15 C4'         2.7248    0.0226   -0.4980 C.3       1 ACP         0.0915
     16 O4'         2.4697    1.4219   -0.2462 O.3       1 ACP        -0.3675
     17 C3'         1.9404   -0.7419    0.5596 C.3       1 ACP         0.0748
     18 O3'         2.7418   -0.8086    1.7389 O.3       1 ACP        -0.5646
     19 C2'         0.7477    0.1630    0.7858 C.3       1 ACP         0.0804
     20 O2'         0.1373   -0.0577    2.0407 O.3       1 ACP        -0.5882
     21 C1'         1.3733    1.5427    0.6747 C.3       1 ACP         0.3809
     22 N9          0.4520    2.5240    0.1767 N.pl3     1 ACP        -0.4412
     23 C8          0.1798    2.8712   -1.2933 C.ar      1 ACP         0.1936
     24 N7         -0.7494    3.8400   -1.3610 N.2       1 ACP        -0.2746
     25 C5         -1.0173    4.0603   -0.0358 C.ar      1 ACP        -0.1386
     26 C6         -2.0105    5.0717    0.4241 C.ar      1 ACP         0.4778
     27 N6         -2.6723    5.7982   -0.4628 N.pl3     1 ACP        -0.8290
     28 N1         -2.1445    5.1522    1.7502 N.pl3     1 ACP        -0.6985
     29 C2         -1.3755    4.3143    2.6426 C.ar      1 ACP         0.6179
     30 N3         -0.5075    3.4292    2.2616 N.ar      1 ACP        -0.5105
     31 C4         -0.3667    3.3425    0.9070 C.ar      1 ACP         0.2753
     32 HOG2        6.7990    2.6812   -6.0451 H         1 ACP         0.4487
     33 HOG3        4.1004    2.9470   -6.9950 H         1 ACP         0.4487
     34 H3B1        5.4187   -0.5625   -7.2252 H         1 ACP         0.1088
     35 H3B2        5.7195   -0.9695   -5.5382 H         1 ACP         0.1088
     36 H5'1        2.8430    0.3138   -2.6391 H         1 ACP         0.0327
     37 H5'2        1.2126   -0.0907   -2.0421 H         1 ACP         0.0327
     38 H4'         3.8046   -0.1390   -0.4011 H         1 ACP         0.1275
     39 H3'         1.6787   -1.7627    0.2719 H         1 ACP         0.0637
     40 HO3'        2.2231   -1.2979    2.3952 H         1 ACP         0.4127
     41 H2'         0.0002   -0.0084   -0.0014 H         1 ACP         0.0692
     42 HO2'       -0.6132    0.5577    2.1063 H         1 ACP         0.4431
     43 H1'         1.7718    1.9211    1.6015 H         1 ACP         0.1199
     44 H8          0.6089    2.4651   -2.2147 H         1 ACP         0.2941
     45 HN61       -2.5055    5.6680   -1.4503 H         1 ACP         0.4754
     46 HN62       -3.3462    6.4841   -0.1542 H         1 ACP         0.4754
     47 H2         -1.5932    4.4937    3.7066 H         1 ACP         0.0886
     48 H48        -2.8098    5.8270    2.1160 H         1 ACP         0.4707
@<TRIPOS>BOND
     1    1    2 2
     2    1    3 1
     3    1    4 1
     4    1    8 1
     5    3   32 1
     6    4   33 1
     7    5    6 2
     8    5    7 1
     9    5    8 1
    10    5   12 1
    11    8   34 1
    12    8   35 1
    13    9   10 2
    14    9   11 1
    15    9   12 1
    16    9   13 1
    17   13   14 1
    18   14   15 1
    19   14   36 1
    20   14   37 1
    21   15   16 1
    22   15   17 1
    23   15   38 1
    24   16   21 1
    25   17   18 1
    26   17   19 1
    27   17   39 1
    28   18   40 1
    29   19   20 1
    30   19   21 1
    31   19   41 1
    32   20   42 1
    33   21   22 1
    34   21   43 1
    35   22   23 ar
    36   22   31 ar
    37   23   24 ar
    38   23   44 1
    39   24   25 ar
    40   25   26 ar
    41   25   31 ar
    42   26   27 1
    43   26   28 ar
    44   27   45 1
    45   27   46 1
    46   28   29 ar
    47   28   48 1
    48   29   30 ar
    49   29   47 1
    50   30   31 ar
@<TRIPOS>SUBSTRUCTURE
     1 ACP         1 GROUP 0 A     ****
@<TRIPOS>MOLECULE
[[5-(6-amino-1,8-dihydropurine-6,8-diylium-7-id-9-yl)-3,4-dihydroxy-tetrahydrofuran-2-yl]methoxy-oxido-phosphoryl]oxy-(phosphonomethyl)phosphinate
   48    50     1     0     0
SMALL
USER_CHARGES

@<TRIPOS>ATOM
      1 PG          3.1208   -5.0843   -3.6473 P.3       1 ACP         1.6558
      2 O1G         4.2739   -5.6677   -4.4071 O.2       1 ACP        -0.9020
      3 O2G         3.5143   -4.0165   -2.5006 O.3       1 ACP        -0.8036
      4 O3G         2.1926   -6.1528   -2.8684 O.3       1 ACP        -0.8036
      5 PB          2.4002   -2.6974   -5.6754 P.3       1 ACP         1.4945
      6 O1B         1.1498   -2.2267   -6.3815 O.co2     1 ACP        -0.8481
      7 O2B         3.6686   -3.0393   -6.4222 O.co2     1 ACP        -0.8481
      8 C3B         1.9370   -4.1782   -4.6687 C.3       1 ACP        -0.6636
      9 PA          3.0640   -0.0874   -4.4291 P.3       1 ACP         1.6023
     10 O1A         1.8214    0.6556   -4.8701 O.co2     1 ACP        -0.8673
     11 O2A         4.3865    0.1390   -5.1289 O.co2     1 ACP        -0.8673
     12 O3A         2.7413   -1.6884   -4.4406 O.3       1 ACP        -0.8150
     13 O5'         3.2885    0.1337   -2.8242 O.3       1 ACP        -0.5522
     14 C5'         2.2816   -0.2918   -1.9206 C.3       1 ACP         0.2181
     15 C4'         2.7248    0.0226   -0.4980 C.3       1 ACP         0.0915
     16 O4'         2.4697    1.4219   -0.2462 O.3       1 ACP        -0.3675
     17 C3'         1.9404   -0.7419    0.5596 C.3       1 ACP         0.0748
     18 O3'         2.7418   -0.8086    1.7389 O.3       1 ACP        -0.5646
     19 C2'         0.7477    0.1630    0.7858 C.3       1 ACP         0.0804
     20 O2'         0.1373   -0.0577    2.0407 O.3       1 ACP        -0.5882
     21 C1'         1.3733    1.5427    0.6747 C.3       1 ACP         0.3809
     22 N9          0.4520    2.5240    0.1767 N.pl3     1 ACP        -0.4412
     23 C8          0.1798    2.8712   -1.2933 C.ar      1 ACP         0.1936
     24 N7         -0.7494    3.8400   -1.3610 N.2       1 ACP        -0.2746
     25 C5         -1.0173    4.0603   -0.0358 C.ar      1 ACP        -0.1386
     26 C6         -2.0105    5.0717    0.4241 C.ar      1 ACP         0.4778
     27 N6         -2.6723    5.7982   -0.4628 N.pl3     1 ACP        -0.8290
     28 N1         -2.1445    5.1522    1.7502 N.pl3     1 ACP        -0.6985
     29 C2         -1.3755    4.3143    2.6426 C.ar      1 ACP         0.6179
     30 N3         -0.5075    3.4292    2.2616 N.ar      1 ACP        -0.5105
     31 C4         -0.3667    3.3425    0.9070 C.ar      1 ACP         0.2753
     32 HOG2        4.0936   -4.3034   -1.7629 H         1 ACP         0.4487
     33 HOG3        2.5980   -6.7210   -2.1794 H         1 ACP         0.4487
     34 H3B1        1.4980   -4.8899   -5.3769 H         1 ACP         0.1088
     35 H3B2        1.1293   -3.8482   -4.0054 H         1 ACP         0.1088
     36 H5'1        1.3501    0.2325   -2.1561 H         1 ACP         0.0327
     37 H5'2        2.1268   -1.3683   -2.0445 H         1 ACP         0.0327
     38 H4'         3.8046   -0.1390   -0.4011 H         1 ACP         0.1275
     39 H3'         1.6787   -1.7627    0.2719 H         1 ACP         0.0637
     40 HO3'        2.2231   -1.2979    2.3952 H         1 ACP         0.4127
     41 H2'         0.0002   -0.0084   -0.0014 H         1 ACP         0.0692
     42 HO2'       -0.1554   -0.9852    2.0577 H         1 ACP         0.4431
     43 H1'         1.7718    1.9211    1.6015 H         1 ACP         0.1199
     44 H8          0.6089    2.4651   -2.2147 H         1 ACP         0.2941
     45 HN61       -2.5055    5.6680   -1.4503 H         1 ACP         0.4754
     46 HN62       -3.3462    6.4841   -0.1542 H         1 ACP         0.4754
     47 H2         -1.5932    4.4937    3.7066 H         1 ACP         0.0886
     48 H48        -2.8098    5.8270    2.1160 H         1 ACP         0.4707
@<TRIPOS>BOND
     1    1    2 2
     2    1    3 1
     3    1    4 1
     4    1    8 1
     5    3   32 1
     6    4   33 1
     7    5    6 2
     8    5    7 1
     9    5    8 1
    10    5   12 1
    11    8   34 1
    12    8   35 1
    13    9   10 2
    14    9   11 1
    15    9   12 1
    16    9   13 1
    17   13   14 1
    18   14   15 1
    19   14   36 1
    20   14   37 1
    21   15   16 1
    22   15   17 1
    23   15   38 1
    24   16   21 1
    25   17   18 1
    26   17   19 1
    27   17   39 1
    28   18   40 1
    29   19   20 1
    30   19   21 1
    31   19   41 1
    32   20   42 1
    33   21   22 1
    34   21   43 1
    35   22   23 ar
    36   22   31 ar
    37   23   24 ar
    38   23   44 1
    39   24   25 ar
    40   25   26 ar
    41   25   31 ar
    42   26   27 1
    43   26   28 ar
    44   27   45 1
    45   27   46 1
    46   28   29 ar
    47   28   48 1
    48   29   30 ar
    49   29   47 1
    50   30   31 ar
@<TRIPOS>SUBSTRUCTURE
     1 ACP         1 GROUP 0 A     ****
@<TRIPOS>MOLECULE
[[5-(6-amino-1,8-dihydropurine-6,8-diylium-7-id-9-yl)-3,4-dihydroxy-tetrahydrofuran-2-yl]methoxy-oxido-phosphoryl]oxy-(phosphonomethyl)phosphinate
   48    50     1     0     0
SMALL
USER_CHARGES

@<TRIPOS>ATOM
      1 PG         -1.3945    0.1927   -5.2736 P.3       1 ACP         1.6558
      2 O1G        -2.0922   -1.1289   -5.3908 O.2       1 ACP        -0.9020
      3 O2G        -0.7400    0.5064   -3.8302 O.3       1 ACP        -0.8036
      4 O3G        -2.3134    1.4894   -5.5634 O.3       1 ACP        -0.8036
      5 PB          1.4715   -0.7020   -6.4206 P.3       1 ACP         1.4945
      6 O1B         2.3999   -0.2031   -7.5035 O.co2     1 ACP        -0.8481
      7 O2B         0.9669   -2.1259   -6.3827 O.co2     1 ACP        -0.8481
      8 C3B        -0.0082    0.4077   -6.4127 C.3       1 ACP        -0.6636
      9 PA          3.4810   -0.6670   -4.2373 P.3       1 ACP         1.6023
     10 O1A         4.6070   -0.0329   -5.0251 O.co2     1 ACP        -0.8673
     11 O2A         3.4859   -2.1517   -3.9447 O.co2     1 ACP        -0.8673
     12 O3A         2.0662   -0.2878   -4.9597 O.3       1 ACP        -0.8150
     13 O5'         3.2885    0.1337   -2.8242 O.3       1 ACP        -0.5522
     14 C5'         2.2816   -0.2918   -1.9206 C.3       1 ACP         0.2181
     15 C4'         2.7248    0.0226   -0.4980 C.3       1 ACP         0.0915
     16 O4'         2.4697    1.4219   -0.2462 O.3       1 ACP        -0.3675
     17 C3'         1.9404   -0.7419    0.5596 C.3       1 ACP         0.0748
     18 O3'         2.7418   -0.8086    1.7389 O.3       1 ACP        -0.5646
     19 C2'         0.7477    0.1630    0.7858 C.3       1 ACP         0.0804
     20 O2'         0.1373   -0.0577    2.0407 O.3       1 ACP        -0.5882
     21 C1'         1.3733    1.5427    0.6747 C.3       1 ACP         0.3809
     22 N9          0.4520    2.5240    0.1767 N.pl3     1 ACP        -0.4412
     23 C8          0.1798    2.8712   -1.2933 C.ar      1 ACP         0.1936
     24 N7         -0.7494    3.8400   -1.3610 N.2       1 ACP        -0.2746
     25 C5         -1.0173    4.0603   -0.0358 C.ar      1 ACP        -0.1386
     26 C6         -2.0105    5.0717    0.4241 C.ar      1 ACP         0.4778
     27 N6         -2.6723    5.7982   -0.4628 N.pl3     1 ACP        -0.8290
     28 N1         -2.1445    5.1522    1.7502 N.pl3     1 ACP        -0.6985
     29 C2         -1.3755    4.3143    2.6426 C.ar      1 ACP         0.6179
     30 N3         -0.5075    3.4292    2.2616 N.ar      1 ACP        -0.5105
     31 C4         -0.3667    3.3425    0.9070 C.ar      1 ACP         0.2753
     32 HOG2       -1.3217    0.5355   -3.0410 H         1 ACP         0.4487
     33 HOG3       -3.1023    1.6477   -5.0026 H         1 ACP         0.4487
     34 H3B1       -0.4087    0.3712   -7.4321 H         1 ACP         0.1088
     35 H3B2        0.3789    1.4212   -6.2577 H         1 ACP         0.1088
     36 H5'1        1.3501    0.2325   -2.1561 H         1 ACP         0.0327
     37 H5'2        2.1268   -1.3683   -2.0445 H         1 ACP         0.0327
     38 H4'         3.8046   -0.1390   -0.4011 H         1 ACP         0.1275
     39 H3'         1.6787   -1.7627    0.2719 H         1 ACP         0.0637
     40 HO3'        2.2231   -1.2979    2.3952 H         1 ACP         0.4127
     41 H2'         0.0002   -0.0084   -0.0014 H         1 ACP         0.0692
     42 HO2'       -0.1554   -0.9852    2.0577 H         1 ACP         0.4431
     43 H1'         1.7718    1.9211    1.6015 H         1 ACP         0.1199
     44 H8          0.6089    2.4651   -2.2147 H         1 ACP         0.2941
     45 HN61       -2.5055    5.6680   -1.4503 H         1 ACP         0.4754
     46 HN62       -3.3462    6.4841   -0.1542 H         1 ACP         0.4754
     47 H2         -1.5932    4.4937    3.7066 H         1 ACP         0.0886
     48 H48        -2.8098    5.8270    2.1160 H         1 ACP         0.4707
@<TRIPOS>BOND
     1    1    2 2
     2    1    3 1
     3    1    4 1
     4    1    8 1
     5    3   32 1
     6    4   33 1
     7    5    6 2
     8    5    7 1
     9    5    8 1
    10    5   12 1
    11    8   34 1
    12    8   35 1
    13    9   10 2
    14    9   11 1
    15    9   12 1
    16    9   13 1
    17   13   14 1
    18   14   15 1
    19   14   36 1
    20   14   37 1
    21   15   16 1
    22   15   17 1
    23   15   38 1
    24   16   21 1
    25   17   18 1
    26   17   19 1
    27   17   39 1
    28   18   40 1
    29   19   20 1
    30   19   21 1
    31   19   41 1
    32   20   42 1
    33   21   22 1
    34   21   43 1
    35   22   23 ar
    36   22   31 ar
    37   23   24 ar
    38   23   44 1
    39   24   25 ar
    40   25   26 ar
    41   25   31 ar
    42   26   27 1
    43   26   28 ar
    44   27   45 1
    45   27   46 1
    46   28   29 ar
    47   28   48 1
    48   29   30 ar
    49   29   47 1
    50   30   31 ar
@<TRIPOS>SUBSTRUCTURE
     1 ACP         1 GROUP 0 A     ****
@<TRIPOS>MOLECULE
[[5-(6-amino-1,8-dihydropurine-6,8-diylium-7-id-9-yl)-3,4-dihydroxy-tetrahydrofuran-2-yl]methoxy-oxido-phosphoryl]oxy-(phosphonomethyl)phosphinate
   48    50     1     0     0
SMALL
USER_CHARGES

@<TRIPOS>ATOM
      1 PG         -2.4030   -3.0917   -5.0052 P.3       1 ACP         1.6558
      2 O1G        -1.4978   -2.3798   -5.9650 O.2       1 ACP        -0.9020
      3 O2G        -2.3542   -4.7052   -5.0720 O.3       1 ACP        -0.8036
      4 O3G        -3.9755   -2.7531   -5.1548 O.3       1 ACP        -0.8036
      5 PB         -0.4463   -3.1009   -2.4554 P.3       1 ACP         1.4945
      6 O1B        -0.2085   -4.5884   -2.5740 O.co2     1 ACP        -0.8481
      7 O2B        -0.4371   -2.3855   -1.1243 O.co2     1 ACP        -0.8481
      8 C3B        -2.0697   -2.7389   -3.2645 C.3       1 ACP        -0.6636
      9 PA          2.1358   -2.2685   -3.6578 P.3       1 ACP         1.6023
     10 O1A         2.4970   -1.2612   -4.7281 O.co2     1 ACP        -0.8673
     11 O2A         2.6457   -3.6911   -3.7347 O.co2     1 ACP        -0.8673
     12 O3A         0.5094   -2.3101   -3.5139 O.3       1 ACP        -0.8150
     13 O5'         2.5238   -1.6632   -2.1888 O.3       1 ACP        -0.5522
     14 C5'         2.2816   -0.2918   -1.9206 C.3       1 ACP         0.2181
     15 C4'         2.7248    0.0226   -0.4980 C.3       1 ACP         0.0915
     16 O4'         2.4697    1.4219   -0.2462 O.3       1 ACP        -0.3675
     17 C3'         1.9404   -0.7419    0.5596 C.3       1 ACP         0.0748
     18 O3'         2.7418   -0.8086    1.7389 O.3       1 ACP        -0.5646
     19 C2'         0.7477    0.1630    0.7858 C.3       1 ACP         0.0804
     20 O2'         0.1373   -0.0577    2.0407 O.3       1 ACP        -0.5882
     21 C1'         1.3733    1.5427    0.6747 C.3       1 ACP         0.3809
     22 N9          0.4520    2.5240    0.1767 N.pl3     1 ACP        -0.4412
     23 C8          0.1798    2.8712   -1.2933 C.ar      1 ACP         0.1936
     24 N7         -0.7494    3.8400   -1.3610 N.2       1 ACP        -0.2746
     25 C5         -1.0173    4.0603   -0.0358 C.ar      1 ACP        -0.1386
     26 C6         -2.0105    5.0717    0.4241 C.ar      1 ACP         0.4778
     27 N6         -2.6723    5.7982   -0.4628 N.pl3     1 ACP        -0.8290
     28 N1         -2.1445    5.1522    1.7502 N.pl3     1 ACP        -0.6985
     29 C2         -1.3755    4.3143    2.6426 C.ar      1 ACP         0.6179
     30 N3         -0.5075    3.4292    2.2616 N.ar      1 ACP        -0.5105
     31 C4         -0.3667    3.3425    0.9070 C.ar      1 ACP         0.2753
     32 HOG2       -2.5892   -5.1532   -5.9124 H         1 ACP         0.4487
     33 HOG3       -4.4237   -2.9439   -6.0061 H         1 ACP         0.4487
     34 H3B1       -2.2465   -1.6694   -3.1038 H         1 ACP         0.1088
     35 H3B2       -2.8226   -3.2787   -2.6790 H         1 ACP         0.1088
     36 H5'1        2.8430    0.3138   -2.6391 H         1 ACP         0.0327
     37 H5'2        1.2126   -0.0907   -2.0421 H         1 ACP         0.0327
     38 H4'         3.8046   -0.1390   -0.4011 H         1 ACP         0.1275
     39 H3'         1.6787   -1.7627    0.2719 H         1 ACP         0.0637
     40 HO3'        2.2231   -1.2979    2.3952 H         1 ACP         0.4127
     41 H2'         0.0002   -0.0084   -0.0014 H         1 ACP         0.0692
     42 HO2'       -0.6132    0.5577    2.1063 H         1 ACP         0.4431
     43 H1'         1.7718    1.9211    1.6015 H         1 ACP         0.1199
     44 H8          0.6089    2.4651   -2.2147 H         1 ACP         0.2941
     45 HN61       -2.5055    5.6680   -1.4503 H         1 ACP         0.4754
     46 HN62       -3.3462    6.4841   -0.1542 H         1 ACP         0.4754
     47 H2         -1.5932    4.4937    3.7066 H         1 ACP         0.0886
     48 H48        -2.8098    5.8270    2.1160 H         1 ACP         0.4707
@<TRIPOS>BOND
     1    1    2 2
     2    1    3 1
     3    1    4 1
     4    1    8 1
     5    3   32 1
     6    4   33 1
     7    5    6 2
     8    5    7 1
     9    5    8 1
    10    5   12 1
    11    8   34 1
    12    8   35 1
    13    9   10 2
    14    9   11 1
    15    9   12 1
    16    9   13 1
    17   13   14 1
    18   14   15 1
    19   14   36 1
    20   14   37 1
    21   15   16 1
    22   15   17 1
    23   15   38 1
    24   16   21 1
    25   17   18 1
    26   17   19 1
    27   17   39 1
    28   18   40 1
    29   19   20 1
    30   19   21 1
    31   19   41 1
    32   20   42 1
    33   21   22 1
    34   21   43 1
    35   22   23 ar
    36   22   31 ar
    37   23   24 ar
    38   23   44 1
    39   24   25 ar
    40   25   26 ar
    41   25   31 ar
    42   26   27 1
    43   26   28 ar
    44   27   45 1
    45   27   46 1
    46   28   29 ar
    47   28   48 1
    48   29   30 ar
    49   29   47 1
    50   30   31 ar
@<TRIPOS>SUBSTRUCTURE
     1 ACP         1 GROUP 0 A     ****
@<TRIPOS>MOLECULE
[[5-(6-amino-1,8-dihydropurine-6,8-diylium-7-id-9-yl)-3,4-dihydroxy-tetrahydrofuran-2-yl]methoxy-oxido-phosphoryl]oxy-(phosphonomethyl)phosphinate
   48    50     1     0     0
SMALL
USER_CHARGES

@<TRIPOS>ATOM
      1 PG          4.6753   -0.1813   -7.5021 P.3       1 ACP         1.6558
      2 O1G         5.4072   -1.2686   -8.2298 O.2       1 ACP        -0.9020
      3 O2G         3.0654   -0.3164   -7.4899 O.3       1 ACP        -0.8036
      4 O3G         4.9263    1.3147   -8.0575 O.3       1 ACP        -0.8036
      5 PB          4.8394   -1.4237   -4.5425 P.3       1 ACP         1.4945
      6 O1B         5.3045   -0.9286   -3.1926 O.co2     1 ACP        -0.8481
      7 O2B         5.3889   -2.6818   -5.1739 O.co2     1 ACP        -0.8481
      8 C3B         5.0929   -0.0452   -5.7492 C.3       1 ACP        -0.6636
      9 PA          2.1358   -2.2685   -3.6578 P.3       1 ACP         1.6023
     10 O1A         2.4845   -3.7405   -3.7033 O.co2     1 ACP        -0.8673
     11 O2A         0.7432   -1.7950   -4.0135 O.co2     1 ACP        -0.8673
     12 O3A         3.2094   -1.4534   -4.5800 O.3       1 ACP        -0.8150
     13 O5'         2.5238   -1.6632   -2.1888 O.3       1 ACP        -0.5522
     14 C5'         2.2816   -0.2918   -1.9206 C.3       1 ACP         0.2181
     15 C4'         2.7248    0.0226   -0.4980 C.3       1 ACP         0.0915
     16 O4'         2.4697    1.4219   -0.2462 O.3       1 ACP        -0.3675
     17 C3'         1.9404   -0.7419    0.5596 C.3       1 ACP         0.0748
     18 O3'         2.7418   -0.8086    1.7389 O.3       1 ACP        -0.5646
     19 C2'         0.7477    0.1630    0.7858 C.3       1 ACP         0.0804
     20 O2'         0.1373   -0.0577    2.0407 O.3       1 ACP        -0.5882
     21 C1'         1.3733    1.5427    0.6747 C.3       1 ACP         0.3809
     22 N9          0.4520    2.5240    0.1767 N.pl3     1 ACP        -0.4412
     23 C8          0.1798    2.8712   -1.2933 C.ar      1 ACP         0.1936
     24 N7         -0.7494    3.8400   -1.3610 N.2       1 ACP        -0.2746
     25 C5         -1.0173    4.0603   -0.0358 C.ar      1 ACP        -0.1386
     26 C6         -2.0105    5.0717    0.4241 C.ar      1 ACP         0.4778
     27 N6         -2.6723    5.7982   -0.4628 N.pl3     1 ACP        -0.8290
     28 N1         -2.1445    5.1522    1.7502 N.pl3     1 ACP        -0.6985
     29 C2         -1.3755    4.3143    2.6426 C.ar      1 ACP         0.6179
     30 N3         -0.5075    3.4292    2.2616 N.ar      1 ACP        -0.5105
     31 C4         -0.3667    3.3425    0.9070 C.ar      1 ACP         0.2753
     32 HOG2        2.5827   -0.3227   -8.3437 H         1 ACP         0.4487
     33 HOG3        4.6888    1.5230   -8.9861 H         1 ACP         0.4487
     34 H3B1        6.1556    0.2136   -5.6813 H         1 ACP         0.1088
     35 H3B2        4.5306    0.8075   -5.3518 H         1 ACP         0.1088
     36 H5'1        2.8430    0.3138   -2.6391 H         1 ACP         0.0327
     37 H5'2        1.2126   -0.0907   -2.0421 H         1 ACP         0.0327
     38 H4'         3.8046   -0.1390   -0.4011 H         1 ACP         0.1275
     39 H3'         1.6787   -1.7627    0.2719 H         1 ACP         0.0637
     40 HO3'        2.2231   -1.2979    2.3952 H         1 ACP         0.4127
     41 H2'         0.0002   -0.0084   -0.0014 H         1 ACP         0.0692
     42 HO2'       -0.6132    0.5577    2.1063 H         1 ACP         0.4431
     43 H1'         1.7718    1.9211    1.6015 H         1 ACP         0.1199
     44 H8          0.6089    2.4651   -2.2147 H         1 ACP         0.2941
     45 HN61       -2.5055    5.6680   -1.4503 H         1 ACP         0.4754
     46 HN62       -3.3462    6.4841   -0.1542 H         1 ACP         0.4754
     47 H2         -1.5932    4.4937    3.7066 H         1 ACP         0.0886
     48 H48        -2.8098    5.8270    2.1160 H         1 ACP         0.4707
@<TRIPOS>BOND
     1    1    2 2
     2    1    3 1
     3    1    4 1
     4    1    8 1
     5    3   32 1
     6    4   33 1
     7    5    6 2
     8    5    7 1
     9    5    8 1
    10    5   12 1
    11    8   34 1
    12    8   35 1
    13    9   10 2
    14    9   11 1
    15    9   12 1
    16    9   13 1
    17   13   14 1
    18   14   15 1
    19   14   36 1
    20   14   37 1
    21   15   16 1
    22   15   17 1
    23   15   38 1
    24   16   21 1
    25   17   18 1
    26   17   19 1
    27   17   39 1
    28   18   40 1
    29   19   20 1
    30   19   21 1
    31   19   41 1
    32   20   42 1
    33   21   22 1
    34   21   43 1
    35   22   23 ar
    36   22   31 ar
    37   23   24 ar
    38   23   44 1
    39   24   25 ar
    40   25   26 ar
    41   25   31 ar
    42   26   27 1
    43   26   28 ar
    44   27   45 1
    45   27   46 1
    46   28   29 ar
    47   28   48 1
    48   29   30 ar
    49   29   47 1
    50   30   31 ar
@<TRIPOS>SUBSTRUCTURE
     1 ACP         1 GROUP 0 A     ****
@<TRIPOS>MOLECULE
[[5-(6-amino-1,8-dihydropurine-6,8-diylium-7-id-9-yl)-3,4-dihydroxy-tetrahydrofuran-2-yl]methoxy-oxido-phosphoryl]oxy-(phosphonomethyl)phosphinate
   48    50     1     0     0
SMALL
USER_CHARGES

@<TRIPOS>ATOM
      1 PG          7.4716   -1.1204   -2.8251 P.3       1 ACP         1.6558
      2 O1G         8.0277   -2.5104   -2.9033 O.2       1 ACP        -0.9020
      3 O2G         8.5379    0.0335   -2.4484 O.3       1 ACP        -0.8036
      4 O3G         6.2863   -0.9079   -1.7482 O.3       1 ACP        -0.8036
      5 PB          5.3154   -1.3584   -5.1966 P.3       1 ACP         1.4945
      6 O1B         5.7535   -2.7661   -5.5282 O.co2     1 ACP        -0.8481
      7 O2B         4.7863   -0.4093   -6.2467 O.co2     1 ACP        -0.8481
      8 C3B         6.7404   -0.5220   -4.3655 C.3       1 ACP        -0.6636
      9 PA          2.8590   -2.1285   -3.7205 P.3       1 ACP         1.6023
     10 O1A         3.0780   -3.6257   -3.7547 O.co2     1 ACP        -0.8673
     11 O2A         1.8554   -1.4750   -4.6455 O.co2     1 ACP        -0.8673
     12 O3A         4.3020   -1.3896   -3.9195 O.3       1 ACP        -0.8150
     13 O5'         2.5238   -1.6632   -2.1888 O.3       1 ACP        -0.5522
     14 C5'         2.2816   -0.2918   -1.9206 C.3       1 ACP         0.2181
     15 C4'         2.7248    0.0226   -0.4980 C.3       1 ACP         0.0915
     16 O4'         2.4697    1.4219   -0.2462 O.3       1 ACP        -0.3675
     17 C3'         1.9404   -0.7419    0.5596 C.3       1 ACP         0.0748
     18 O3'         2.7418   -0.8086    1.7389 O.3       1 ACP        -0.5646
     19 C2'         0.7477    0.1630    0.7858 C.3       1 ACP         0.0804
     20 O2'         0.1373   -0.0577    2.0407 O.3       1 ACP        -0.5882
     21 C1'         1.3733    1.5427    0.6747 C.3       1 ACP         0.3809
     22 N9          0.4520    2.5240    0.1767 N.pl3     1 ACP        -0.4412
     23 C8          0.1798    2.8712   -1.2933 C.ar      1 ACP         0.1936
     24 N7         -0.7494    3.8400   -1.3610 N.2       1 ACP        -0.2746
     25 C5         -1.0173    4.0603   -0.0358 C.ar      1 ACP        -0.1386
     26 C6         -2.0105    5.0717    0.4241 C.ar      1 ACP         0.4778
     27 N6         -2.6723    5.7982   -0.4628 N.pl3     1 ACP        -0.8290
     28 N1         -2.1445    5.1522    1.7502 N.pl3     1 ACP        -0.6985
     29 C2         -1.3755    4.3143    2.6426 C.ar      1 ACP         0.6179
     30 N3         -0.5075    3.4292    2.2616 N.ar      1 ACP        -0.5105
     31 C4         -0.3667    3.3425    0.9070 C.ar      1 ACP         0.2753
     32 HOG2        9.0151   -0.0215   -1.5933 H         1 ACP         0.4487
     33 HOG3        6.4672   -1.0871   -0.8010 H         1 ACP         0.4487
     34 H3B1        6.4183    0.5121   -4.1992 H         1 ACP         0.1088
     35 H3B2        7.5442   -0.4904   -5.1098 H         1 ACP         0.1088
     36 H5'1        2.8430    0.3138   -2.6391 H         1 ACP         0.0327
     37 H5'2        1.2126   -0.0907   -2.0421 H         1 ACP         0.0327
     38 H4'         3.8046   -0.1390   -0.4011 H         1 ACP         0.1275
     39 H3'         1.6787   -1.7627    0.2719 H         1 ACP         0.0637
     40 HO3'        2.2231   -1.2979    2.3952 H         1 ACP         0.4127
     41 H2'         0.0002   -0.0084   -0.0014 H         1 ACP         0.0692
     42 HO2'       -0.6132    0.5577    2.1063 H         1 ACP         0.4431
     43 H1'         1.7718    1.9211    1.6015 H         1 ACP         0.1199
     44 H8          0.6089    2.4651   -2.2147 H         1 ACP         0.2941
     45 HN61       -2.5055    5.6680   -1.4503 H         1 ACP         0.4754
     46 HN62       -3.3462    6.4841   -0.1542 H         1 ACP         0.4754
     47 H2         -1.5932    4.4937    3.7066 H         1 ACP         0.0886
     48 H48        -2.8098    5.8270    2.1160 H         1 ACP         0.4707
@<TRIPOS>BOND
     1    1    2 2
     2    1    3 1
     3    1    4 1
     4    1    8 1
     5    3   32 1
     6    4   33 1
     7    5    6 2
     8    5    7 1
     9    5    8 1
    10    5   12 1
    11    8   34 1
    12    8   35 1
    13    9   10 2
    14    9   11 1
    15    9   12 1
    16    9   13 1
    17   13   14 1
    18   14   15 1
    19   14   36 1
    20   14   37 1
    21   15   16 1
    22   15   17 1
    23   15   38 1
    24   16   21 1
    25   17   18 1
    26   17   19 1
    27   17   39 1
    28   18   40 1
    29   19   20 1
    30   19   21 1
    31   19   41 1
    32   20   42 1
    33   21   22 1
    34   21   43 1
    35   22   23 ar
    36   22   31 ar
    37   23   24 ar
    38   23   44 1
    39   24   25 ar
    40   25   26 ar
    41   25   31 ar
    42   26   27 1
    43   26   28 ar
    44   27   45 1
    45   27   46 1
    46   28   29 ar
    47   28   48 1
    48   29   30 ar
    49   29   47 1
    50   30   31 ar
@<TRIPOS>SUBSTRUCTURE
     1 ACP         1 GROUP 0 A     ****
@<TRIPOS>MOLECULE
[[5-(6-amino-1,8-dihydropurine-6,8-diylium-7-id-9-yl)-3,4-dihydroxy-tetrahydrofuran-2-yl]methoxy-oxido-phosphoryl]oxy-(phosphonomethyl)phosphinate
   48    50     1     0     0
SMALL
USER_CHARGES

@<TRIPOS>ATOM
      1 PG          1.6197    1.3362   -6.3986 P.3       1 ACP         1.6558
      2 O1G         0.1731    1.6210   -6.6697 O.2       1 ACP        -0.9020
      3 O2G         2.0709    1.4482   -4.8514 O.3       1 ACP        -0.8036
      4 O3G         2.6701    2.2906   -7.1702 O.3       1 ACP        -0.8036
      5 PB          1.4149   -1.8613   -6.1466 P.3       1 ACP         1.4945
      6 O1B         2.1184   -3.0375   -6.7832 O.co2     1 ACP        -0.8481
      7 O2B        -0.0872   -1.7009   -6.1870 O.co2     1 ACP        -0.8481
      8 C3B         2.1529   -0.3258   -6.8666 C.3       1 ACP        -0.6636
      9 PA          1.5529   -2.4527   -3.2419 P.3       1 ACP         1.6023
     10 O1A         2.0063   -3.8917   -3.3620 O.co2     1 ACP        -0.8673
     11 O2A         0.1158   -2.1233   -2.9012 O.co2     1 ACP        -0.8673
     12 O3A         1.9500   -1.6683   -4.6184 O.3       1 ACP        -0.8150
     13 O5'         2.5238   -1.6632   -2.1888 O.3       1 ACP        -0.5522
     14 C5'         2.2816   -0.2918   -1.9206 C.3       1 ACP         0.2181
     15 C4'         2.7248    0.0226   -0.4980 C.3       1 ACP         0.0915
     16 O4'         2.4697    1.4219   -0.2462 O.3       1 ACP        -0.3675
     17 C3'         1.9404   -0.7419    0.5596 C.3       1 ACP         0.0748
     18 O3'         2.7418   -0.8086    1.7389 O.3       1 ACP        -0.5646
     19 C2'         0.7477    0.1630    0.7858 C.3       1 ACP         0.0804
     20 O2'         0.1373   -0.0577    2.0407 O.3       1 ACP        -0.5882
     21 C1'         1.3733    1.5427    0.6747 C.3       1 ACP         0.3809
     22 N9          0.4520    2.5240    0.1767 N.pl3     1 ACP        -0.4412
     23 C8          0.1798    2.8712   -1.2933 C.ar      1 ACP         0.1936
     24 N7         -0.7494    3.8400   -1.3610 N.2       1 ACP        -0.2746
     25 C5         -1.0173    4.0603   -0.0358 C.ar      1 ACP        -0.1386
     26 C6         -2.0105    5.0717    0.4241 C.ar      1 ACP         0.4778
     27 N6         -2.6723    5.7982   -0.4628 N.pl3     1 ACP        -0.8290
     28 N1         -2.1445    5.1522    1.7502 N.pl3     1 ACP        -0.6985
     29 C2         -1.3755    4.3143    2.6426 C.ar      1 ACP         0.6179
     30 N3         -0.5075    3.4292    2.2616 N.ar      1 ACP        -0.5105
     31 C4         -0.3667    3.3425    0.9070 C.ar      1 ACP         0.2753
     32 HOG2        1.9621    2.3044   -4.3855 H         1 ACP         0.4487
     33 HOG3        2.6400    3.2578   -7.0098 H         1 ACP         0.4487
     34 H3B1        2.0286   -0.4202   -7.9512 H         1 ACP         0.1088
     35 H3B2        3.2279   -0.3862   -6.6618 H         1 ACP         0.1088
     36 H5'1        2.8430    0.3138   -2.6391 H         1 ACP         0.0327
     37 H5'2        1.2126   -0.0907   -2.0421 H         1 ACP         0.0327
     38 H4'         3.8046   -0.1390   -0.4011 H         1 ACP         0.1275
     39 H3'         1.6787   -1.7627    0.2719 H         1 ACP         0.0637
     40 HO3'        2.2231   -1.2979    2.3952 H         1 ACP         0.4127
     41 H2'         0.0002   -0.0084   -0.0014 H         1 ACP         0.0692
     42 HO2'       -0.6132    0.5577    2.1063 H         1 ACP         0.4431
     43 H1'         1.7718    1.9211    1.6015 H         1 ACP         0.1199
     44 H8          0.6089    2.4651   -2.2147 H         1 ACP         0.2941
     45 HN61       -2.5055    5.6680   -1.4503 H         1 ACP         0.4754
     46 HN62       -3.3462    6.4841   -0.1542 H         1 ACP         0.4754
     47 H2         -1.5932    4.4937    3.7066 H         1 ACP         0.0886
     48 H48        -2.8098    5.8270    2.1160 H         1 ACP         0.4707
@<TRIPOS>BOND
     1    1    2 2
     2    1    3 1
     3    1    4 1
     4    1    8 1
     5    3   32 1
     6    4   33 1
     7    5    6 2
     8    5    7 1
     9    5    8 1
    10    5   12 1
    11    8   34 1
    12    8   35 1
    13    9   10 2
    14    9   11 1
    15    9   12 1
    16    9   13 1
    17   13   14 1
    18   14   15 1
    19   14   36 1
    20   14   37 1
    21   15   16 1
    22   15   17 1
    23   15   38 1
    24   16   21 1
    25   17   18 1
    26   17   19 1
    27   17   39 1
    28   18   40 1
    29   19   20 1
    30   19   21 1
    31   19   41 1
    32   20   42 1
    33   21   22 1
    34   21   43 1
    35   22   23 ar
    36   22   31 ar
    37   23   24 ar
    38   23   44 1
    39   24   25 ar
    40   25   26 ar
    41   25   31 ar
    42   26   27 1
    43   26   28 ar
    44   27   45 1
    45   27   46 1
    46   28   29 ar
    47   28   48 1
    48   29   30 ar
    49   29   47 1
    50   30   31 ar
@<TRIPOS>SUBSTRUCTURE
     1 ACP         1 GROUP 0 A     ****
@<TRIPOS>MOLECULE
[[5-(6-amino-1,8-dihydropurine-6,8-diylium-7-id-9-yl)-3,4-dihydroxy-tetrahydrofuran-2-yl]methoxy-oxido-phosphoryl]oxy-(phosphonomethyl)phosphinate
   48    50     1     0     0
SMALL
USER_CHARGES

@<TRIPOS>ATOM
      1 PG          0.4329   -5.3698    0.1451 P.3       1 ACP         1.6558
      2 O1G        -0.1614   -5.5584    1.5083 O.2       1 ACP        -0.9020
      3 O2G         0.8400   -6.7284   -0.6286 O.3       1 ACP        -0.8036
      4 O3G         1.7836   -4.4850    0.0944 O.3       1 ACP        -0.8036
      5 PB         -0.1611   -4.1760   -2.7793 P.3       1 ACP         1.4945
      6 O1B        -1.3251   -3.4723   -3.4376 O.co2     1 ACP        -0.8481
      7 O2B         0.4414   -5.4414   -3.3445 O.co2     1 ACP        -0.8481
      8 C3B        -0.6524   -4.5320   -1.0321 C.3       1 ACP        -0.6636
      9 PA          2.1608   -2.4473   -3.4325 P.3       1 ACP         1.6023
     10 O1A         1.4738   -1.5919   -4.4751 O.co2     1 ACP        -0.8673
     11 O2A         3.1184   -3.5441   -3.8445 O.co2     1 ACP        -0.8673
     12 O3A         1.0192   -3.0965   -2.4615 O.3       1 ACP        -0.8150
     13 O5'         2.9203   -1.4822   -2.3523 O.3       1 ACP        -0.5522
     14 C5'         2.2816   -0.2918   -1.9206 C.3       1 ACP         0.2181
     15 C4'         2.7248    0.0226   -0.4980 C.3       1 ACP         0.0915
     16 O4'         2.4697    1.4219   -0.2462 O.3       1 ACP        -0.3675
     17 C3'         1.9404   -0.7419    0.5596 C.3       1 ACP         0.0748
     18 O3'         2.7418   -0.8086    1.7389 O.3       1 ACP        -0.5646
     19 C2'         0.7477    0.1630    0.7858 C.3       1 ACP         0.0804
     20 O2'         0.1373   -0.0577    2.0407 O.3       1 ACP        -0.5882
     21 C1'         1.3733    1.5427    0.6747 C.3       1 ACP         0.3809
     22 N9          0.4520    2.5240    0.1767 N.pl3     1 ACP        -0.4412
     23 C8          0.1798    2.8712   -1.2933 C.ar      1 ACP         0.1936
     24 N7         -0.7494    3.8400   -1.3610 N.2       1 ACP        -0.2746
     25 C5         -1.0173    4.0603   -0.0358 C.ar      1 ACP        -0.1386
     26 C6         -2.0105    5.0717    0.4241 C.ar      1 ACP         0.4778
     27 N6         -2.6723    5.7982   -0.4628 N.pl3     1 ACP        -0.8290
     28 N1         -2.1445    5.1522    1.7502 N.pl3     1 ACP        -0.6985
     29 C2         -1.3755    4.3143    2.6426 C.ar      1 ACP         0.6179
     30 N3         -0.5075    3.4292    2.2616 N.ar      1 ACP        -0.5105
     31 C4         -0.3667    3.3425    0.9070 C.ar      1 ACP         0.2753
     32 HOG2        1.5017   -7.3270   -0.2213 H         1 ACP         0.4487
     33 HOG3        2.5693   -4.7882    0.5971 H         1 ACP         0.4487
     34 H3B1       -1.5789   -5.1132   -1.0996 H         1 ACP         0.1088
     35 H3B2       -0.9145   -3.5631   -0.5918 H         1 ACP         0.1088
     36 H5'1        2.5581    0.5234   -2.5967 H         1 ACP         0.0327
     37 H5'2        1.1975   -0.4371   -1.9608 H         1 ACP         0.0327
     38 H4'         3.8046   -0.1390   -0.4011 H         1 ACP         0.1275
     39 H3'         1.6787   -1.7627    0.2719 H         1 ACP         0.0637
     40 HO3'        2.2231   -1.2979    2.3952 H         1 ACP         0.4127
     41 H2'         0.0002   -0.0084   -0.0014 H         1 ACP         0.0692
     42 HO2'       -0.1554   -0.9852    2.0577 H         1 ACP         0.4431
     43 H1'         1.7718    1.9211    1.6015 H         1 ACP         0.1199
     44 H8          0.6089    2.4651   -2.2147 H         1 ACP         0.2941
     45 HN61       -2.5055    5.6680   -1.4503 H         1 ACP         0.4754
     46 HN62       -3.3462    6.4841   -0.1542 H         1 ACP         0.4754
     47 H2         -1.5932    4.4937    3.7066 H         1 ACP         0.0886
     48 H48        -2.8098    5.8270    2.1160 H         1 ACP         0.4707
@<TRIPOS>BOND
     1    1    2 2
     2    1    3 1
     3    1    4 1
     4    1    8 1
     5    3   32 1
     6    4   33 1
     7    5    6 2
     8    5    7 1
     9    5    8 1
    10    5   12 1
    11    8   34 1
    12    8   35 1
    13    9   10 2
    14    9   11 1
    15    9   12 1
    16    9   13 1
    17   13   14 1
    18   14   15 1
    19   14   36 1
    20   14   37 1
    21   15   16 1
    22   15   17 1
    23   15   38 1
    24   16   21 1
    25   17   18 1
    26   17   19 1
    27   17   39 1
    28   18   40 1
    29   19   20 1
    30   19   21 1
    31   19   41 1
    32   20   42 1
    33   21   22 1
    34   21   43 1
    35   22   23 ar
    36   22   31 ar
    37   23   24 ar
    38   23   44 1
    39   24   25 ar
    40   25   26 ar
    41   25   31 ar
    42   26   27 1
    43   26   28 ar
    44   27   45 1
    45   27   46 1
    46   28   29 ar
    47   28   48 1
    48   29   30 ar
    49   29   47 1
    50   30   31 ar
@<TRIPOS>SUBSTRUCTURE
     1 ACP         1 GROUP 0 A     ****
@<TRIPOS>MOLECULE
[[5-(6-amino-1,8-dihydropurine-6,8-diylium-7-id-9-yl)-3,4-dihydroxy-tetrahydrofuran-2-yl]methoxy-oxido-phosphoryl]oxy-(phosphonomethyl)phosphinate
   48    50     1     0     0
SMALL
USER_CHARGES

@<TRIPOS>ATOM
      1 PG         -0.9058    2.4014   -6.3344 P.3       1 ACP         1.6558
      2 O1G        -0.4167    3.3046   -7.4264 O.2       1 ACP        -0.9020
      3 O2G        -0.6651    0.8227   -6.5796 O.3       1 ACP        -0.8036
      4 O3G        -2.4854    2.4986   -6.0103 O.3       1 ACP        -0.8036
      5 PB          1.6835    2.5394   -4.4353 P.3       1 ACP         1.4945
      6 O1B         1.9336    2.8576   -2.9794 O.co2     1 ACP        -0.8481
      7 O2B         2.3815    3.2772   -5.5543 O.co2     1 ACP        -0.8481
      8 C3B        -0.1368    2.6928   -4.7253 C.3       1 ACP        -0.6636
      9 PA          3.0640   -0.0874   -4.4291 P.3       1 ACP         1.6023
     10 O1A         4.2648    0.4427   -5.1825 O.co2     1 ACP        -0.8673
     11 O2A         2.5794   -1.5038   -4.6499 O.co2     1 ACP        -0.8673
     12 O3A         1.8101    0.9308   -4.6711 O.3       1 ACP        -0.8150
     13 O5'         3.2885    0.1337   -2.8242 O.3       1 ACP        -0.5522
     14 C5'         2.2816   -0.2918   -1.9206 C.3       1 ACP         0.2181
     15 C4'         2.7248    0.0226   -0.4980 C.3       1 ACP         0.0915
     16 O4'         2.4697    1.4219   -0.2462 O.3       1 ACP        -0.3675
     17 C3'         1.9404   -0.7419    0.5596 C.3       1 ACP         0.0748
     18 O3'         2.7418   -0.8086    1.7389 O.3       1 ACP        -0.5646
     19 C2'         0.7477    0.1630    0.7858 C.3       1 ACP         0.0804
     20 O2'         0.1373   -0.0577    2.0407 O.3       1 ACP        -0.5882
     21 C1'         1.3733    1.5427    0.6747 C.3       1 ACP         0.3809
     22 N9          0.4520    2.5240    0.1767 N.pl3     1 ACP        -0.4412
     23 C8         -0.7463    2.2774   -0.7501 C.ar      1 ACP         0.1936
     24 N7         -1.3714    3.4419   -0.9948 N.2       1 ACP        -0.2746
     25 C5         -0.6104    4.3223   -0.2723 C.ar      1 ACP        -0.1386
     26 C6         -0.9062    5.7820   -0.2194 C.ar      1 ACP         0.4778
     27 N6         -1.9385    6.2713   -0.8881 N.pl3     1 ACP        -0.8290
     28 N1         -0.0613    6.4906    0.5336 N.pl3     1 ACP        -0.6985
     29 C2          1.0416    5.8662    1.2291 C.ar      1 ACP         0.6179
     30 N3          1.3146    4.5989    1.1954 N.ar      1 ACP        -0.5105
     31 C4          0.4541    3.8697    0.4273 C.ar      1 ACP         0.2753
     32 HOG2       -1.0699    0.3968   -7.3649 H         1 ACP         0.4487
     33 HOG3       -3.1298    2.2935   -6.7208 H         1 ACP         0.4487
     34 H3B1       -0.4000    3.7093   -4.4118 H         1 ACP         0.1088
     35 H3B2       -0.6117    2.0064   -4.0150 H         1 ACP         0.1088
     36 H5'1        1.3501    0.2325   -2.1561 H         1 ACP         0.0327
     37 H5'2        2.1268   -1.3683   -2.0445 H         1 ACP         0.0327
     38 H4'         3.8046   -0.1390   -0.4011 H         1 ACP         0.1275
     39 H3'         1.6787   -1.7627    0.2719 H         1 ACP         0.0637
     40 HO3'        2.2231   -1.2979    2.3952 H         1 ACP         0.4127
     41 H2'         0.0002   -0.0084   -0.0014 H         1 ACP         0.0692
     42 HO2'       -0.6132    0.5577    2.1063 H         1 ACP         0.4431
     43 H1'         1.7718    1.9211    1.6015 H         1 ACP         0.1199
     44 H8         -1.1244    1.3534   -1.1987 H         1 ACP         0.2941
     45 HN61       -2.5259    5.6573   -1.4336 H         1 ACP         0.4754
     46 HN62       -2.1416    7.2600   -0.8539 H         1 ACP         0.4754
     47 H2          1.6509    6.5764    1.8088 H         1 ACP         0.0886
     48 H48        -0.2190    7.4917    0.6033 H         1 ACP         0.4707
@<TRIPOS>BOND
     1    1    2 2
     2    1    3 1
     3    1    4 1
     4    1    8 1
     5    3   32 1
     6    4   33 1
     7    5    6 2
     8    5    7 1
     9    5    8 1
    10    5   12 1
    11    8   34 1
    12    8   35 1
    13    9   10 2
    14    9   11 1
    15    9   12 1
    16    9   13 1
    17   13   14 1
    18   14   15 1
    19   14   36 1
    20   14   37 1
    21   15   16 1
    22   15   17 1
    23   15   38 1
    24   16   21 1
    25   17   18 1
    26   17   19 1
    27   17   39 1
    28   18   40 1
    29   19   20 1
    30   19   21 1
    31   19   41 1
    32   20   42 1
    33   21   22 1
    34   21   43 1
    35   22   23 ar
    36   22   31 ar
    37   23   24 ar
    38   23   44 1
    39   24   25 ar
    40   25   26 ar
    41   25   31 ar
    42   26   27 1
    43   26   28 ar
    44   27   45 1
    45   27   46 1
    46   28   29 ar
    47   28   48 1
    48   29   30 ar
    49   29   47 1
    50   30   31 ar
@<TRIPOS>SUBSTRUCTURE
     1 ACP         1 GROUP 0 A     ****
@<TRIPOS>MOLECULE
[[5-(6-amino-1,8-dihydropurine-6,8-diylium-7-id-9-yl)-3,4-dihydroxy-tetrahydrofuran-2-yl]methoxy-oxido-phosphoryl]oxy-(phosphonomethyl)phosphinate
   48    50     1     0     0
SMALL
USER_CHARGES

@<TRIPOS>ATOM
      1 PG         -0.1220   -2.7436   -5.5541 P.3       1 ACP         1.6558
      2 O1G         0.1323   -4.2096   -5.3709 O.2       1 ACP        -0.9020
      3 O2G        -0.1166   -1.8637   -4.1992 O.3       1 ACP        -0.8036
      4 O3G        -1.5322   -2.3662   -6.2460 O.3       1 ACP        -0.8036
      5 PB          2.8926   -1.8357   -6.2005 P.3       1 ACP         1.4945
      6 O1B         3.5667   -1.0514   -7.3023 O.co2     1 ACP        -0.8481
      7 O2B         3.3227   -3.2352   -5.8264 O.co2     1 ACP        -0.8481
      8 C3B         1.0878   -1.9019   -6.5997 C.3       1 ACP        -0.6636
      9 PA          3.9531   -0.2088   -3.9567 P.3       1 ACP         1.6023
     10 O1A         4.6365    0.8495   -4.7954 O.co2     1 ACP        -0.8673
     11 O2A         4.7595   -1.2976   -3.2826 O.co2     1 ACP        -0.8673
     12 O3A         2.7887   -0.9130   -4.8599 O.3       1 ACP        -0.8150
     13 O5'         3.0199    0.5139   -2.8245 O.3       1 ACP        -0.5522
     14 C5'         2.2816   -0.2918   -1.9206 C.3       1 ACP         0.2181
     15 C4'         2.7248    0.0226   -0.4980 C.3       1 ACP         0.0915
     16 O4'         2.4697    1.4219   -0.2462 O.3       1 ACP        -0.3675
     17 C3'         1.9404   -0.7419    0.5596 C.3       1 ACP         0.0748
     18 O3'         2.7418   -0.8086    1.7389 O.3       1 ACP        -0.5646
     19 C2'         0.7477    0.1630    0.7858 C.3       1 ACP         0.0804
     20 O2'         0.1373   -0.0577    2.0407 O.3       1 ACP        -0.5882
     21 C1'         1.3733    1.5427    0.6747 C.3       1 ACP         0.3809
     22 N9          0.4520    2.5240    0.1767 N.pl3     1 ACP        -0.4412
     23 C8          0.1798    2.8712   -1.2933 C.ar      1 ACP         0.1936
     24 N7         -0.7494    3.8400   -1.3610 N.2       1 ACP        -0.2746
     25 C5         -1.0173    4.0603   -0.0358 C.ar      1 ACP        -0.1386
     26 C6         -2.0105    5.0717    0.4241 C.ar      1 ACP         0.4778
     27 N6         -2.6723    5.7982   -0.4628 N.pl3     1 ACP        -0.8290
     28 N1         -2.1445    5.1522    1.7502 N.pl3     1 ACP        -0.6985
     29 C2         -1.3755    4.3143    2.6426 C.ar      1 ACP         0.6179
     30 N3         -0.5075    3.4292    2.2616 N.ar      1 ACP        -0.5105
     31 C4         -0.3667    3.3425    0.9070 C.ar      1 ACP         0.2753
     32 HOG2       -0.7633   -2.0751   -3.4928 H         1 ACP         0.4487
     33 HOG3       -2.3653   -2.6441   -5.8091 H         1 ACP         0.4487
     34 H3B1        1.0239   -2.3430   -7.6008 H         1 ACP         0.1088
     35 H3B2        0.7628   -0.8590   -6.6889 H         1 ACP         0.1088
     36 H5'1        1.2154   -0.0780   -2.0455 H         1 ACP         0.0327
     37 H5'2        2.4646   -1.3453   -2.1548 H         1 ACP         0.0327
     38 H4'         3.8046   -0.1390   -0.4011 H         1 ACP         0.1275
     39 H3'         1.6787   -1.7627    0.2719 H         1 ACP         0.0637
     40 HO3'        2.2231   -1.2979    2.3952 H         1 ACP         0.4127
     41 H2'         0.0002   -0.0084   -0.0014 H         1 ACP         0.0692
     42 HO2'       -0.6132    0.5577    2.1063 H         1 ACP         0.4431
     43 H1'         1.7718    1.9211    1.6015 H         1 ACP         0.1199
     44 H8          0.6089    2.4651   -2.2147 H         1 ACP         0.2941
     45 HN61       -2.5055    5.6680   -1.4503 H         1 ACP         0.4754
     46 HN62       -3.3462    6.4841   -0.1542 H         1 ACP         0.4754
     47 H2         -1.5932    4.4937    3.7066 H         1 ACP         0.0886
     48 H48        -2.8098    5.8270    2.1160 H         1 ACP         0.4707
@<TRIPOS>BOND
     1    1    2 2
     2    1    3 1
     3    1    4 1
     4    1    8 1
     5    3   32 1
     6    4   33 1
     7    5    6 2
     8    5    7 1
     9    5    8 1
    10    5   12 1
    11    8   34 1
    12    8   35 1
    13    9   10 2
    14    9   11 1
    15    9   12 1
    16    9   13 1
    17   13   14 1
    18   14   15 1
    19   14   36 1
    20   14   37 1
    21   15   16 1
    22   15   17 1
    23   15   38 1
    24   16   21 1
    25   17   18 1
    26   17   19 1
    27   17   39 1
    28   18   40 1
    29   19   20 1
    30   19   21 1
    31   19   41 1
    32   20   42 1
    33   21   22 1
    34   21   43 1
    35   22   23 ar
    36   22   31 ar
    37   23   24 ar
    38   23   44 1
    39   24   25 ar
    40   25   26 ar
    41   25   31 ar
    42   26   27 1
    43   26   28 ar
    44   27   45 1
    45   27   46 1
    46   28   29 ar
    47   28   48 1
    48   29   30 ar
    49   29   47 1
    50   30   31 ar
@<TRIPOS>SUBSTRUCTURE
     1 ACP         1 GROUP 0 A     ****
@<TRIPOS>MOLECULE
[[5-(6-amino-1,8-dihydropurine-6,8-diylium-7-id-9-yl)-3,4-dihydroxy-tetrahydrofuran-2-yl]methoxy-oxido-phosphoryl]oxy-(phosphonomethyl)phosphinate
   48    50     1     0     0
SMALL
USER_CHARGES

@<TRIPOS>ATOM
      1 PG          4.7008   -1.2670   -7.7497 P.3       1 ACP         1.6558
      2 O1G         3.2533   -1.6192   -7.9171 O.2       1 ACP        -0.9020
      3 O2G         5.2784   -0.1865   -8.8028 O.3       1 ACP        -0.8036
      4 O3G         5.7332   -2.5036   -7.8700 O.3       1 ACP        -0.8036
      5 PB          4.8394   -1.4237   -4.5425 P.3       1 ACP         1.4945
      6 O1B         5.3024   -0.5001   -3.4396 O.co2     1 ACP        -0.8481
      7 O2B         5.3806   -2.8256   -4.7016 O.co2     1 ACP        -0.8481
      8 C3B         5.1112   -0.5426   -6.1458 C.3       1 ACP        -0.6636
      9 PA          2.1358   -2.2685   -3.6578 P.3       1 ACP         1.6023
     10 O1A         2.4845   -3.7405   -3.7033 O.co2     1 ACP        -0.8673
     11 O2A         0.7432   -1.7950   -4.0135 O.co2     1 ACP        -0.8673
     12 O3A         3.2094   -1.4534   -4.5800 O.3       1 ACP        -0.8150
     13 O5'         2.5238   -1.6632   -2.1888 O.3       1 ACP        -0.5522
     14 C5'         2.2816   -0.2918   -1.9206 C.3       1 ACP         0.2181
     15 C4'         2.7248    0.0226   -0.4980 C.3       1 ACP         0.0915
     16 O4'         2.4697    1.4219   -0.2462 O.3       1 ACP        -0.3675
     17 C3'         1.9404   -0.7419    0.5596 C.3       1 ACP         0.0748
     18 O3'         2.7418   -0.8086    1.7389 O.3       1 ACP        -0.5646
     19 C2'         0.7477    0.1630    0.7858 C.3       1 ACP         0.0804
     20 O2'         0.1373   -0.0577    2.0407 O.3       1 ACP        -0.5882
     21 C1'         1.3733    1.5427    0.6747 C.3       1 ACP         0.3809
     22 N9          0.4520    2.5240    0.1767 N.pl3     1 ACP        -0.4412
     23 C8          0.1798    2.8712   -1.2933 C.ar      1 ACP         0.1936
     24 N7         -0.7494    3.8400   -1.3610 N.2       1 ACP        -0.2746
     25 C5         -1.0173    4.0603   -0.0358 C.ar      1 ACP        -0.1386
     26 C6         -2.0105    5.0717    0.4241 C.ar      1 ACP         0.4778
     27 N6         -2.6723    5.7982   -0.4628 N.pl3     1 ACP        -0.8290
     28 N1         -2.1445    5.1522    1.7502 N.pl3     1 ACP        -0.6985
     29 C2         -1.3755    4.3143    2.6426 C.ar      1 ACP         0.6179
     30 N3         -0.5075    3.4292    2.2616 N.ar      1 ACP        -0.5105
     31 C4         -0.3667    3.3425    0.9070 C.ar      1 ACP         0.2753
     32 HOG2        5.2500   -0.3948   -9.7609 H         1 ACP         0.4487
     33 HOG3        5.7645   -3.0170   -8.7051 H         1 ACP         0.4487
     34 H3B1        6.1758   -0.2834   -6.1624 H         1 ACP         0.1088
     35 H3B2        4.5545    0.3983   -6.0681 H         1 ACP         0.1088
     36 H5'1        2.8430    0.3138   -2.6391 H         1 ACP         0.0327
     37 H5'2        1.2126   -0.0907   -2.0421 H         1 ACP         0.0327
     38 H4'         3.8046   -0.1390   -0.4011 H         1 ACP         0.1275
     39 H3'         1.6787   -1.7627    0.2719 H         1 ACP         0.0637
     40 HO3'        2.2231   -1.2979    2.3952 H         1 ACP         0.4127
     41 H2'         0.0002   -0.0084   -0.0014 H         1 ACP         0.0692
     42 HO2'       -0.1554   -0.9852    2.0577 H         1 ACP         0.4431
     43 H1'         1.7718    1.9211    1.6015 H         1 ACP         0.1199
     44 H8          0.6089    2.4651   -2.2147 H         1 ACP         0.2941
     45 HN61       -2.5055    5.6680   -1.4503 H         1 ACP         0.4754
     46 HN62       -3.3462    6.4841   -0.1542 H         1 ACP         0.4754
     47 H2         -1.5932    4.4937    3.7066 H         1 ACP         0.0886
     48 H48        -2.8098    5.8270    2.1160 H         1 ACP         0.4707
@<TRIPOS>BOND
     1    1    2 2
     2    1    3 1
     3    1    4 1
     4    1    8 1
     5    3   32 1
     6    4   33 1
     7    5    6 2
     8    5    7 1
     9    5    8 1
    10    5   12 1
    11    8   34 1
    12    8   35 1
    13    9   10 2
    14    9   11 1
    15    9   12 1
    16    9   13 1
    17   13   14 1
    18   14   15 1
    19   14   36 1
    20   14   37 1
    21   15   16 1
    22   15   17 1
    23   15   38 1
    24   16   21 1
    25   17   18 1
    26   17   19 1
    27   17   39 1
    28   18   40 1
    29   19   20 1
    30   19   21 1
    31   19   41 1
    32   20   42 1
    33   21   22 1
    34   21   43 1
    35   22   23 ar
    36   22   31 ar
    37   23   24 ar
    38   23   44 1
    39   24   25 ar
    40   25   26 ar
    41   25   31 ar
    42   26   27 1
    43   26   28 ar
    44   27   45 1
    45   27   46 1
    46   28   29 ar
    47   28   48 1
    48   29   30 ar
    49   29   47 1
    50   30   31 ar
@<TRIPOS>SUBSTRUCTURE
     1 ACP         1 GROUP 0 A     ****
@<TRIPOS>MOLECULE
[[5-(6-amino-1,8-dihydropurine-6,8-diylium-7-id-9-yl)-3,4-dihydroxy-tetrahydrofuran-2-yl]methoxy-oxido-phosphoryl]oxy-(phosphonomethyl)phosphinate
   48    50     1     0     0
SMALL
USER_CHARGES

@<TRIPOS>ATOM
      1 PG          7.6487   -0.5885   -0.5241 P.3       1 ACP         1.6558
      2 O1G         6.6116    0.4541   -0.2333 O.2       1 ACP        -0.9020
      3 O2G         8.1865   -1.4094    0.7593 O.3       1 ACP        -0.8036
      4 O3G         9.0010   -0.0452   -1.2209 O.3       1 ACP        -0.8036
      5 PB          6.5318   -1.5582   -3.3776 P.3       1 ACP         1.4945
      6 O1B         6.1605   -2.8881   -3.9916 O.co2     1 ACP        -0.8481
      7 O2B         7.5408   -0.6296   -4.0125 O.co2     1 ACP        -0.8481
      8 C3B         7.1006   -1.8918   -1.6496 C.3       1 ACP        -0.6636
      9 PA          3.9531   -0.2088   -3.9567 P.3       1 ACP         1.6023
     10 O1A         3.2272   -1.4155   -4.5112 O.co2     1 ACP        -0.8673
     11 O2A         4.4895    0.8608   -4.8830 O.co2     1 ACP        -0.8673
     12 O3A         5.1759   -0.7310   -3.0082 O.3       1 ACP        -0.8150
     13 O5'         3.0199    0.5139   -2.8245 O.3       1 ACP        -0.5522
     14 C5'         2.2816   -0.2918   -1.9206 C.3       1 ACP         0.2181
     15 C4'         2.7248    0.0226   -0.4980 C.3       1 ACP         0.0915
     16 O4'         2.4697    1.4219   -0.2462 O.3       1 ACP        -0.3675
     17 C3'         1.9404   -0.7419    0.5596 C.3       1 ACP         0.0748
     18 O3'         2.7418   -0.8086    1.7389 O.3       1 ACP        -0.5646
     19 C2'         0.7477    0.1630    0.7858 C.3       1 ACP         0.0804
     20 O2'         0.1373   -0.0577    2.0407 O.3       1 ACP        -0.5882
     21 C1'         1.3733    1.5427    0.6747 C.3       1 ACP         0.3809
     22 N9          0.4520    2.5240    0.1767 N.pl3     1 ACP        -0.4412
     23 C8          0.1798    2.8712   -1.2933 C.ar      1 ACP         0.1936
     24 N7         -0.7494    3.8400   -1.3610 N.2       1 ACP        -0.2746
     25 C5         -1.0173    4.0603   -0.0358 C.ar      1 ACP        -0.1386
     26 C6         -2.0105    5.0717    0.4241 C.ar      1 ACP         0.4778
     27 N6         -2.6723    5.7982   -0.4628 N.pl3     1 ACP        -0.8290
     28 N1         -2.1445    5.1522    1.7502 N.pl3     1 ACP        -0.6985
     29 C2         -1.3755    4.3143    2.6426 C.ar      1 ACP         0.6179
     30 N3         -0.5075    3.4292    2.2616 N.ar      1 ACP        -0.5105
     31 C4         -0.3667    3.3425    0.9070 C.ar      1 ACP         0.2753
     32 HOG2        8.6196   -0.9186    1.4898 H         1 ACP         0.4487
     33 HOG3        9.5413    0.6253   -0.7513 H         1 ACP         0.4487
     34 H3B1        7.9195   -2.6139   -1.7436 H         1 ACP         0.1088
     35 H3B2        6.2712   -2.4119   -1.1568 H         1 ACP         0.1088
     36 H5'1        1.2154   -0.0780   -2.0455 H         1 ACP         0.0327
     37 H5'2        2.4646   -1.3453   -2.1548 H         1 ACP         0.0327
     38 H4'         3.8046   -0.1390   -0.4011 H         1 ACP         0.1275
     39 H3'         1.6787   -1.7627    0.2719 H         1 ACP         0.0637
     40 HO3'        2.2231   -1.2979    2.3952 H         1 ACP         0.4127
     41 H2'         0.0002   -0.0084   -0.0014 H         1 ACP         0.0692
     42 HO2'       -0.6132    0.5577    2.1063 H         1 ACP         0.4431
     43 H1'         1.7718    1.9211    1.6015 H         1 ACP         0.1199
     44 H8          0.6089    2.4651   -2.2147 H         1 ACP         0.2941
     45 HN61       -2.5055    5.6680   -1.4503 H         1 ACP         0.4754
     46 HN62       -3.3462    6.4841   -0.1542 H         1 ACP         0.4754
     47 H2         -1.5932    4.4937    3.7066 H         1 ACP         0.0886
     48 H48        -2.8098    5.8270    2.1160 H         1 ACP         0.4707
@<TRIPOS>BOND
     1    1    2 2
     2    1    3 1
     3    1    4 1
     4    1    8 1
     5    3   32 1
     6    4   33 1
     7    5    6 2
     8    5    7 1
     9    5    8 1
    10    5   12 1
    11    8   34 1
    12    8   35 1
    13    9   10 2
    14    9   11 1
    15    9   12 1
    16    9   13 1
    17   13   14 1
    18   14   15 1
    19   14   36 1
    20   14   37 1
    21   15   16 1
    22   15   17 1
    23   15   38 1
    24   16   21 1
    25   17   18 1
    26   17   19 1
    27   17   39 1
    28   18   40 1
    29   19   20 1
    30   19   21 1
    31   19   41 1
    32   20   42 1
    33   21   22 1
    34   21   43 1
    35   22   23 ar
    36   22   31 ar
    37   23   24 ar
    38   23   44 1
    39   24   25 ar
    40   25   26 ar
    41   25   31 ar
    42   26   27 1
    43   26   28 ar
    44   27   45 1
    45   27   46 1
    46   28   29 ar
    47   28   48 1
    48   29   30 ar
    49   29   47 1
    50   30   31 ar
@<TRIPOS>SUBSTRUCTURE
     1 ACP         1 GROUP 0 A     ****
@<TRIPOS>MOLECULE
[[5-(6-amino-1,8-dihydropurine-6,8-diylium-7-id-9-yl)-3,4-dihydroxy-tetrahydrofuran-2-yl]methoxy-oxido-phosphoryl]oxy-(phosphonomethyl)phosphinate
   48    50     1     0     0
SMALL
USER_CHARGES

@<TRIPOS>ATOM
      1 PG          0.0613   -0.4241   -6.7676 P.3       1 ACP         1.6558
      2 O1G         0.5061    0.5189   -7.8447 O.2       1 ACP        -0.9020
      3 O2G        -1.4279   -1.0256   -6.9432 O.3       1 ACP        -0.8036
      4 O3G         0.0496    0.1876   -5.2725 O.3       1 ACP        -0.8036
      5 PB          2.8926   -1.8357   -6.2005 P.3       1 ACP         1.4945
      6 O1B         3.5667   -1.0514   -7.3023 O.co2     1 ACP        -0.8481
      7 O2B         3.3227   -3.2352   -5.8264 O.co2     1 ACP        -0.8481
      8 C3B         1.0878   -1.9019   -6.5997 C.3       1 ACP        -0.6636
      9 PA          3.9531   -0.2088   -3.9567 P.3       1 ACP         1.6023
     10 O1A         4.6365    0.8495   -4.7954 O.co2     1 ACP        -0.8673
     11 O2A         4.7595   -1.2976   -3.2826 O.co2     1 ACP        -0.8673
     12 O3A         2.7887   -0.9130   -4.8599 O.3       1 ACP        -0.8150
     13 O5'         3.0199    0.5139   -2.8245 O.3       1 ACP        -0.5522
     14 C5'         2.2816   -0.2918   -1.9206 C.3       1 ACP         0.2181
     15 C4'         2.7248    0.0226   -0.4980 C.3       1 ACP         0.0915
     16 O4'         2.4697    1.4219   -0.2462 O.3       1 ACP        -0.3675
     17 C3'         1.9404   -0.7419    0.5596 C.3       1 ACP         0.0748
     18 O3'         2.7418   -0.8086    1.7389 O.3       1 ACP        -0.5646
     19 C2'         0.7477    0.1630    0.7858 C.3       1 ACP         0.0804
     20 O2'         0.1373   -0.0577    2.0407 O.3       1 ACP        -0.5882
     21 C1'         1.3733    1.5427    0.6747 C.3       1 ACP         0.3809
     22 N9          0.4520    2.5240    0.1767 N.pl3     1 ACP        -0.4412
     23 C8          0.1798    2.8712   -1.2933 C.ar      1 ACP         0.1936
     24 N7         -0.7494    3.8400   -1.3610 N.2       1 ACP        -0.2746
     25 C5         -1.0173    4.0603   -0.0358 C.ar      1 ACP        -0.1386
     26 C6         -2.0105    5.0717    0.4241 C.ar      1 ACP         0.4778
     27 N6         -2.6723    5.7982   -0.4628 N.pl3     1 ACP        -0.8290
     28 N1         -2.1445    5.1522    1.7502 N.pl3     1 ACP        -0.6985
     29 C2         -1.3755    4.3143    2.6426 C.ar      1 ACP         0.6179
     30 N3         -0.5075    3.4292    2.2616 N.ar      1 ACP        -0.5105
     31 C4         -0.3667    3.3425    0.9070 C.ar      1 ACP         0.2753
     32 HOG2       -2.1893   -0.4079   -6.9722 H         1 ACP         0.4487
     33 HOG3       -0.5171    0.9651   -5.0817 H         1 ACP         0.4487
     34 H3B1        0.6377   -2.5311   -5.8236 H         1 ACP         0.1088
     35 H3B2        1.0103   -2.4540   -7.5433 H         1 ACP         0.1088
     36 H5'1        1.2154   -0.0780   -2.0455 H         1 ACP         0.0327
     37 H5'2        2.4646   -1.3453   -2.1548 H         1 ACP         0.0327
     38 H4'         3.8046   -0.1390   -0.4011 H         1 ACP         0.1275
     39 H3'         1.6787   -1.7627    0.2719 H         1 ACP         0.0637
     40 HO3'        2.2231   -1.2979    2.3952 H         1 ACP         0.4127
     41 H2'         0.0002   -0.0084   -0.0014 H         1 ACP         0.0692
     42 HO2'       -0.1554   -0.9852    2.0577 H         1 ACP         0.4431
     43 H1'         1.7718    1.9211    1.6015 H         1 ACP         0.1199
     44 H8          0.6089    2.4651   -2.2147 H         1 ACP         0.2941
     45 HN61       -2.5055    5.6680   -1.4503 H         1 ACP         0.4754
     46 HN62       -3.3462    6.4841   -0.1542 H         1 ACP         0.4754
     47 H2         -1.5932    4.4937    3.7066 H         1 ACP         0.0886
     48 H48        -2.8098    5.8270    2.1160 H         1 ACP         0.4707
@<TRIPOS>BOND
     1    1    2 2
     2    1    3 1
     3    1    4 1
     4    1    8 1
     5    3   32 1
     6    4   33 1
     7    5    6 2
     8    5    7 1
     9    5    8 1
    10    5   12 1
    11    8   34 1
    12    8   35 1
    13    9   10 2
    14    9   11 1
    15    9   12 1
    16    9   13 1
    17   13   14 1
    18   14   15 1
    19   14   36 1
    20   14   37 1
    21   15   16 1
    22   15   17 1
    23   15   38 1
    24   16   21 1
    25   17   18 1
    26   17   19 1
    27   17   39 1
    28   18   40 1
    29   19   20 1
    30   19   21 1
    31   19   41 1
    32   20   42 1
    33   21   22 1
    34   21   43 1
    35   22   23 ar
    36   22   31 ar
    37   23   24 ar
    38   23   44 1
    39   24   25 ar
    40   25   26 ar
    41   25   31 ar
    42   26   27 1
    43   26   28 ar
    44   27   45 1
    45   27   46 1
    46   28   29 ar
    47   28   48 1
    48   29   30 ar
    49   29   47 1
    50   30   31 ar
@<TRIPOS>SUBSTRUCTURE
     1 ACP         1 GROUP 0 A     ****
@<TRIPOS>MOLECULE
[[5-(6-amino-1,8-dihydropurine-6,8-diylium-7-id-9-yl)-3,4-dihydroxy-tetrahydrofuran-2-yl]methoxy-oxido-phosphoryl]oxy-(phosphonomethyl)phosphinate
   48    50     1     0     0
SMALL
USER_CHARGES

@<TRIPOS>ATOM
      1 PG          4.4135   -0.8885   -6.7724 P.3       1 ACP         1.6558
      2 O1G         4.9778   -2.2069   -7.2091 O.2       1 ACP        -0.9020
      3 O2G         4.9874    0.4046   -7.5526 O.3       1 ACP        -0.8036
      4 O3G         4.6357   -0.5215   -5.2149 O.3       1 ACP        -0.8036
      5 PB          1.4149   -1.8613   -6.1466 P.3       1 ACP         1.4945
      6 O1B         1.7148   -3.2671   -6.6128 O.co2     1 ACP        -0.8481
      7 O2B         0.0463   -1.2373   -6.2923 O.co2     1 ACP        -0.8481
      8 C3B         2.6248   -0.7375   -6.9798 C.3       1 ACP        -0.6636
      9 PA          1.5529   -2.4527   -3.2419 P.3       1 ACP         1.6023
     10 O1A         2.0063   -3.8917   -3.3620 O.co2     1 ACP        -0.8673
     11 O2A         0.1158   -2.1233   -2.9012 O.co2     1 ACP        -0.8673
     12 O3A         1.9500   -1.6683   -4.6184 O.3       1 ACP        -0.8150
     13 O5'         2.5238   -1.6632   -2.1888 O.3       1 ACP        -0.5522
     14 C5'         2.2816   -0.2918   -1.9206 C.3       1 ACP         0.2181
     15 C4'         2.7248    0.0226   -0.4980 C.3       1 ACP         0.0915
     16 O4'         2.4697    1.4219   -0.2462 O.3       1 ACP        -0.3675
     17 C3'         1.9404   -0.7419    0.5596 C.3       1 ACP         0.0748
     18 O3'         2.7418   -0.8086    1.7389 O.3       1 ACP        -0.5646
     19 C2'         0.7477    0.1630    0.7858 C.3       1 ACP         0.0804
     20 O2'         0.1373   -0.0577    2.0407 O.3       1 ACP        -0.5882
     21 C1'         1.3733    1.5427    0.6747 C.3       1 ACP         0.3809
     22 N9          0.4520    2.5240    0.1767 N.pl3     1 ACP        -0.4412
     23 C8          0.1798    2.8712   -1.2933 C.ar      1 ACP         0.1936
     24 N7         -0.7494    3.8400   -1.3610 N.2       1 ACP        -0.2746
     25 C5         -1.0173    4.0603   -0.0358 C.ar      1 ACP        -0.1386
     26 C6         -2.0105    5.0717    0.4241 C.ar      1 ACP         0.4778
     27 N6         -2.6723    5.7982   -0.4628 N.pl3     1 ACP        -0.8290
     28 N1         -2.1445    5.1522    1.7502 N.pl3     1 ACP        -0.6985
     29 C2         -1.3755    4.3143    2.6426 C.ar      1 ACP         0.6179
     30 N3         -0.5075    3.4292    2.2616 N.ar      1 ACP        -0.5105
     31 C4         -0.3667    3.3425    0.9070 C.ar      1 ACP         0.2753
     32 HOG2        5.9488    0.5948   -7.5140 H         1 ACP         0.4487
     33 HOG3        5.5509   -0.4534   -4.8687 H         1 ACP         0.4487
     34 H3B1        2.3409    0.2767   -6.6770 H         1 ACP         0.1088
     35 H3B2        2.4192   -0.8198   -8.0531 H         1 ACP         0.1088
     36 H5'1        2.8430    0.3138   -2.6391 H         1 ACP         0.0327
     37 H5'2        1.2126   -0.0907   -2.0421 H         1 ACP         0.0327
     38 H4'         3.8046   -0.1390   -0.4011 H         1 ACP         0.1275
     39 H3'         1.6787   -1.7627    0.2719 H         1 ACP         0.0637
     40 HO3'        2.2231   -1.2979    2.3952 H         1 ACP         0.4127
     41 H2'         0.0002   -0.0084   -0.0014 H         1 ACP         0.0692
     42 HO2'       -0.1554   -0.9852    2.0577 H         1 ACP         0.4431
     43 H1'         1.7718    1.9211    1.6015 H         1 ACP         0.1199
     44 H8          0.6089    2.4651   -2.2147 H         1 ACP         0.2941
     45 HN61       -2.5055    5.6680   -1.4503 H         1 ACP         0.4754
     46 HN62       -3.3462    6.4841   -0.1542 H         1 ACP         0.4754
     47 H2         -1.5932    4.4937    3.7066 H         1 ACP         0.0886
     48 H48        -2.8098    5.8270    2.1160 H         1 ACP         0.4707
@<TRIPOS>BOND
     1    1    2 2
     2    1    3 1
     3    1    4 1
     4    1    8 1
     5    3   32 1
     6    4   33 1
     7    5    6 2
     8    5    7 1
     9    5    8 1
    10    5   12 1
    11    8   34 1
    12    8   35 1
    13    9   10 2
    14    9   11 1
    15    9   12 1
    16    9   13 1
    17   13   14 1
    18   14   15 1
    19   14   36 1
    20   14   37 1
    21   15   16 1
    22   15   17 1
    23   15   38 1
    24   16   21 1
    25   17   18 1
    26   17   19 1
    27   17   39 1
    28   18   40 1
    29   19   20 1
    30   19   21 1
    31   19   41 1
    32   20   42 1
    33   21   22 1
    34   21   43 1
    35   22   23 ar
    36   22   31 ar
    37   23   24 ar
    38   23   44 1
    39   24   25 ar
    40   25   26 ar
    41   25   31 ar
    42   26   27 1
    43   26   28 ar
    44   27   45 1
    45   27   46 1
    46   28   29 ar
    47   28   48 1
    48   29   30 ar
    49   29   47 1
    50   30   31 ar
@<TRIPOS>SUBSTRUCTURE
     1 ACP         1 GROUP 0 A     ****
@<TRIPOS>MOLECULE
[[5-(6-amino-1,8-dihydropurine-6,8-diylium-7-id-9-yl)-3,4-dihydroxy-tetrahydrofuran-2-yl]methoxy-oxido-phosphoryl]oxy-(phosphonomethyl)phosphinate
   48    50     1     0     0
SMALL
USER_CHARGES

@<TRIPOS>ATOM
      1 PG          2.0619    1.2955   -6.2061 P.3       1 ACP         1.6558
      2 O1G         2.8769    2.1823   -5.3136 O.2       1 ACP        -0.9020
      3 O2G         1.6728    1.9251   -7.6422 O.3       1 ACP        -0.8036
      4 O3G         0.6405    0.8223   -5.6016 O.3       1 ACP        -0.8036
      5 PB          3.3825   -1.5166   -5.3826 P.3       1 ACP         1.4945
      6 O1B         4.3761   -0.8439   -4.4641 O.co2     1 ACP        -0.8481
      7 O2B         3.7047   -2.7934   -6.1240 O.co2     1 ACP        -0.8481
      8 C3B         2.8639   -0.2643   -6.6411 C.3       1 ACP        -0.6636
      9 PA          1.5529   -2.4527   -3.2419 P.3       1 ACP         1.6023
     10 O1A         2.0063   -3.8917   -3.3620 O.co2     1 ACP        -0.8673
     11 O2A         0.1158   -2.1233   -2.9012 O.co2     1 ACP        -0.8673
     12 O3A         1.9500   -1.6683   -4.6184 O.3       1 ACP        -0.8150
     13 O5'         2.5238   -1.6632   -2.1888 O.3       1 ACP        -0.5522
     14 C5'         2.2816   -0.2918   -1.9206 C.3       1 ACP         0.2181
     15 C4'         2.7248    0.0226   -0.4980 C.3       1 ACP         0.0915
     16 O4'         2.4697    1.4219   -0.2462 O.3       1 ACP        -0.3675
     17 C3'         1.9404   -0.7419    0.5596 C.3       1 ACP         0.0748
     18 O3'         2.7418   -0.8086    1.7389 O.3       1 ACP        -0.5646
     19 C2'         0.7477    0.1630    0.7858 C.3       1 ACP         0.0804
     20 O2'         0.1373   -0.0577    2.0407 O.3       1 ACP        -0.5882
     21 C1'         1.3733    1.5427    0.6747 C.3       1 ACP         0.3809
     22 N9          0.4520    2.5240    0.1767 N.pl3     1 ACP        -0.4412
     23 C8          0.1798    2.8712   -1.2933 C.ar      1 ACP         0.1936
     24 N7         -0.7494    3.8400   -1.3610 N.2       1 ACP        -0.2746
     25 C5         -1.0173    4.0603   -0.0358 C.ar      1 ACP        -0.1386
     26 C6         -2.0105    5.0717    0.4241 C.ar      1 ACP         0.4778
     27 N6         -2.6723    5.7982   -0.4628 N.pl3     1 ACP        -0.8290
     28 N1         -2.1445    5.1522    1.7502 N.pl3     1 ACP        -0.6985
     29 C2         -1.3755    4.3143    2.6426 C.ar      1 ACP         0.6179
     30 N3         -0.5075    3.4292    2.2616 N.ar      1 ACP        -0.5105
     31 C4         -0.3667    3.3425    0.9070 C.ar      1 ACP         0.2753
     32 HOG2        1.1439    2.7506   -7.6714 H         1 ACP         0.4487
     33 HOG3       -0.0242    1.5027   -5.3620 H         1 ACP         0.4487
     34 H3B1        2.1992   -0.7975   -7.3301 H         1 ACP         0.1088
     35 H3B2        3.7704   -0.0119   -7.2030 H         1 ACP         0.1088
     36 H5'1        2.8430    0.3138   -2.6391 H         1 ACP         0.0327
     37 H5'2        1.2126   -0.0907   -2.0421 H         1 ACP         0.0327
     38 H4'         3.8046   -0.1390   -0.4011 H         1 ACP         0.1275
     39 H3'         1.6787   -1.7627    0.2719 H         1 ACP         0.0637
     40 HO3'        3.5553   -1.2733    1.4913 H         1 ACP         0.4127
     41 H2'         0.0002   -0.0084   -0.0014 H         1 ACP         0.0692
     42 HO2'       -0.1554   -0.9852    2.0577 H         1 ACP         0.4431
     43 H1'         1.7718    1.9211    1.6015 H         1 ACP         0.1199
     44 H8          0.6089    2.4651   -2.2147 H         1 ACP         0.2941
     45 HN61       -2.5055    5.6680   -1.4503 H         1 ACP         0.4754
     46 HN62       -3.3462    6.4841   -0.1542 H         1 ACP         0.4754
     47 H2         -1.5932    4.4937    3.7066 H         1 ACP         0.0886
     48 H48        -2.8098    5.8270    2.1160 H         1 ACP         0.4707
@<TRIPOS>BOND
     1    1    2 2
     2    1    3 1
     3    1    4 1
     4    1    8 1
     5    3   32 1
     6    4   33 1
     7    5    6 2
     8    5    7 1
     9    5    8 1
    10    5   12 1
    11    8   34 1
    12    8   35 1
    13    9   10 2
    14    9   11 1
    15    9   12 1
    16    9   13 1
    17   13   14 1
    18   14   15 1
    19   14   36 1
    20   14   37 1
    21   15   16 1
    22   15   17 1
    23   15   38 1
    24   16   21 1
    25   17   18 1
    26   17   19 1
    27   17   39 1
    28   18   40 1
    29   19   20 1
    30   19   21 1
    31   19   41 1
    32   20   42 1
    33   21   22 1
    34   21   43 1
    35   22   23 ar
    36   22   31 ar
    37   23   24 ar
    38   23   44 1
    39   24   25 ar
    40   25   26 ar
    41   25   31 ar
    42   26   27 1
    43   26   28 ar
    44   27   45 1
    45   27   46 1
    46   28   29 ar
    47   28   48 1
    48   29   30 ar
    49   29   47 1
    50   30   31 ar
@<TRIPOS>SUBSTRUCTURE
     1 ACP         1 GROUP 0 A     ****
@<TRIPOS>MOLECULE
[[5-(6-amino-1,8-dihydropurine-6,8-diylium-7-id-9-yl)-3,4-dihydroxy-tetrahydrofuran-2-yl]methoxy-oxido-phosphoryl]oxy-(phosphonomethyl)phosphinate
   48    50     1     0     0
SMALL
USER_CHARGES

@<TRIPOS>ATOM
      1 PG         -2.2923   -0.5177   -3.0095 P.3       1 ACP         1.6558
      2 O1G        -1.2120   -0.0766   -2.0684 O.2       1 ACP        -0.9020
      3 O2G        -2.4214    0.3435   -4.3703 O.3       1 ACP        -0.8036
      4 O3G        -3.7898   -0.4971   -2.4039 O.3       1 ACP        -0.8036
      5 PB         -0.6407   -2.7954   -4.5632 P.3       1 ACP         1.4945
      6 O1B        -0.5629   -1.9595   -5.8197 O.co2     1 ACP        -0.8481
      7 O2B        -0.6955   -4.3051   -4.6002 O.co2     1 ACP        -0.8481
      8 C3B        -2.1135   -2.2135   -3.6077 C.3       1 ACP        -0.6636
      9 PA          2.1358   -2.2685   -3.6578 P.3       1 ACP         1.6023
     10 O1A         2.4970   -1.2612   -4.7281 O.co2     1 ACP        -0.8673
     11 O2A         2.6457   -3.6911   -3.7347 O.co2     1 ACP        -0.8673
     12 O3A         0.5094   -2.3101   -3.5139 O.3       1 ACP        -0.8150
     13 O5'         2.5238   -1.6632   -2.1888 O.3       1 ACP        -0.5522
     14 C5'         2.2816   -0.2918   -1.9206 C.3       1 ACP         0.2181
     15 C4'         2.7248    0.0226   -0.4980 C.3       1 ACP         0.0915
     16 O4'         2.4697    1.4219   -0.2462 O.3       1 ACP        -0.3675
     17 C3'         1.9404   -0.7419    0.5596 C.3       1 ACP         0.0748
     18 O3'         2.7418   -0.8086    1.7389 O.3       1 ACP        -0.5646
     19 C2'         0.7477    0.1630    0.7858 C.3       1 ACP         0.0804
     20 O2'         0.1373   -0.0577    2.0407 O.3       1 ACP        -0.5882
     21 C1'         1.3733    1.5427    0.6747 C.3       1 ACP         0.3809
     22 N9          0.4520    2.5240    0.1767 N.pl3     1 ACP        -0.4412
     23 C8          0.1798    2.8712   -1.2933 C.ar      1 ACP         0.1936
     24 N7         -0.7494    3.8400   -1.3610 N.2       1 ACP        -0.2746
     25 C5         -1.0173    4.0603   -0.0358 C.ar      1 ACP        -0.1386
     26 C6         -2.0105    5.0717    0.4241 C.ar      1 ACP         0.4778
     27 N6         -2.6723    5.7982   -0.4628 N.pl3     1 ACP        -0.8290
     28 N1         -2.1445    5.1522    1.7502 N.pl3     1 ACP        -0.6985
     29 C2         -1.3755    4.3143    2.6426 C.ar      1 ACP         0.6179
     30 N3         -0.5075    3.4292    2.2616 N.ar      1 ACP        -0.5105
     31 C4         -0.3667    3.3425    0.9070 C.ar      1 ACP         0.2753
     32 HOG2       -2.6126    1.3035   -4.3087 H         1 ACP         0.4487
     33 HOG3       -4.1610    0.3523   -2.0832 H         1 ACP         0.4487
     34 H3B1       -2.1834   -2.8795   -2.7403 H         1 ACP         0.1088
     35 H3B2       -2.9828   -2.4223   -4.2416 H         1 ACP         0.1088
     36 H5'1        2.8430    0.3138   -2.6391 H         1 ACP         0.0327
     37 H5'2        1.2126   -0.0907   -2.0421 H         1 ACP         0.0327
     38 H4'         3.8046   -0.1390   -0.4011 H         1 ACP         0.1275
     39 H3'         1.6787   -1.7627    0.2719 H         1 ACP         0.0637
     40 HO3'        2.2231   -1.2979    2.3952 H         1 ACP         0.4127
     41 H2'         0.0002   -0.0084   -0.0014 H         1 ACP         0.0692
     42 HO2'       -0.6132    0.5577    2.1063 H         1 ACP         0.4431
     43 H1'         1.7718    1.9211    1.6015 H         1 ACP         0.1199
     44 H8          0.6089    2.4651   -2.2147 H         1 ACP         0.2941
     45 HN61       -2.5055    5.6680   -1.4503 H         1 ACP         0.4754
     46 HN62       -3.3462    6.4841   -0.1542 H         1 ACP         0.4754
     47 H2         -1.5932    4.4937    3.7066 H         1 ACP         0.0886
     48 H48        -2.8098    5.8270    2.1160 H         1 ACP         0.4707
@<TRIPOS>BOND
     1    1    2 2
     2    1    3 1
     3    1    4 1
     4    1    8 1
     5    3   32 1
     6    4   33 1
     7    5    6 2
     8    5    7 1
     9    5    8 1
    10    5   12 1
    11    8   34 1
    12    8   35 1
    13    9   10 2
    14    9   11 1
    15    9   12 1
    16    9   13 1
    17   13   14 1
    18   14   15 1
    19   14   36 1
    20   14   37 1
    21   15   16 1
    22   15   17 1
    23   15   38 1
    24   16   21 1
    25   17   18 1
    26   17   19 1
    27   17   39 1
    28   18   40 1
    29   19   20 1
    30   19   21 1
    31   19   41 1
    32   20   42 1
    33   21   22 1
    34   21   43 1
    35   22   23 ar
    36   22   31 ar
    37   23   24 ar
    38   23   44 1
    39   24   25 ar
    40   25   26 ar
    41   25   31 ar
    42   26   27 1
    43   26   28 ar
    44   27   45 1
    45   27   46 1
    46   28   29 ar
    47   28   48 1
    48   29   30 ar
    49   29   47 1
    50   30   31 ar
@<TRIPOS>SUBSTRUCTURE
     1 ACP         1 GROUP 0 A     ****
@<TRIPOS>MOLECULE
[[5-(6-amino-1,8-dihydropurine-6,8-diylium-7-id-9-yl)-3,4-dihydroxy-tetrahydrofuran-2-yl]methoxy-oxido-phosphoryl]oxy-(phosphonomethyl)phosphinate
   48    50     1     0     0
SMALL
USER_CHARGES

@<TRIPOS>ATOM
      1 PG         -0.1482    0.7949   -5.6419 P.3       1 ACP         1.6558
      2 O1G        -0.9138    0.6264   -4.3641 O.2       1 ACP        -0.9020
      3 O2G         1.1462    1.7576   -5.5535 O.3       1 ACP        -0.8036
      4 O3G        -0.9901    1.4037   -6.8789 O.3       1 ACP        -0.8036
      5 PB          1.7233   -1.8066   -5.3979 P.3       1 ACP         1.4945
      6 O1B         2.9493   -0.9668   -5.1237 O.co2     1 ACP        -0.8481
      7 O2B         1.7973   -3.1304   -6.1229 O.co2     1 ACP        -0.8481
      8 C3B         0.5231   -0.7410   -6.3170 C.3       1 ACP        -0.6636
      9 PA          1.2667   -2.6319   -2.5842 P.3       1 ACP         1.6023
     10 O1A         1.7714   -4.0387   -2.8224 O.co2     1 ACP        -0.8673
     11 O2A         0.1413   -2.3719   -1.6065 O.co2     1 ACP        -0.8673
     12 O3A         0.8610   -1.9767   -4.0243 O.3       1 ACP        -0.8150
     13 O5'         2.5238   -1.6632   -2.1888 O.3       1 ACP        -0.5522
     14 C5'         2.2816   -0.2918   -1.9206 C.3       1 ACP         0.2181
     15 C4'         2.7248    0.0226   -0.4980 C.3       1 ACP         0.0915
     16 O4'         2.4697    1.4219   -0.2462 O.3       1 ACP        -0.3675
     17 C3'         1.9404   -0.7419    0.5596 C.3       1 ACP         0.0748
     18 O3'         2.7418   -0.8086    1.7389 O.3       1 ACP        -0.5646
     19 C2'         0.7477    0.1630    0.7858 C.3       1 ACP         0.0804
     20 O2'         0.1373   -0.0577    2.0407 O.3       1 ACP        -0.5882
     21 C1'         1.3733    1.5427    0.6747 C.3       1 ACP         0.3809
     22 N9          0.4520    2.5240    0.1767 N.pl3     1 ACP        -0.4412
     23 C8          0.1798    2.8712   -1.2933 C.ar      1 ACP         0.1936
     24 N7         -0.7494    3.8400   -1.3610 N.2       1 ACP        -0.2746
     25 C5         -1.0173    4.0603   -0.0358 C.ar      1 ACP        -0.1386
     26 C6         -2.0105    5.0717    0.4241 C.ar      1 ACP         0.4778
     27 N6         -2.6723    5.7982   -0.4628 N.pl3     1 ACP        -0.8290
     28 N1         -2.1445    5.1522    1.7502 N.pl3     1 ACP        -0.6985
     29 C2         -1.3755    4.3143    2.6426 C.ar      1 ACP         0.6179
     30 N3         -0.5075    3.4292    2.2616 N.ar      1 ACP        -0.5105
     31 C4         -0.3667    3.3425    0.9070 C.ar      1 ACP         0.2753
     32 HOG2        1.0247    2.6939   -5.2876 H         1 ACP         0.4487
     33 HOG3       -1.3930    2.2933   -6.7874 H         1 ACP         0.4487
     34 H3B1       -0.3232   -1.3934   -6.5603 H         1 ACP         0.1088
     35 H3B2        1.0129   -0.4869   -7.2639 H         1 ACP         0.1088
     36 H5'1        2.8430    0.3138   -2.6391 H         1 ACP         0.0327
     37 H5'2        1.2126   -0.0907   -2.0421 H         1 ACP         0.0327
     38 H4'         3.8046   -0.1390   -0.4011 H         1 ACP         0.1275
     39 H3'         1.6787   -1.7627    0.2719 H         1 ACP         0.0637
     40 HO3'        2.2231   -1.2979    2.3952 H         1 ACP         0.4127
     41 H2'         0.0002   -0.0084   -0.0014 H         1 ACP         0.0692
     42 HO2'       -0.6132    0.5577    2.1063 H         1 ACP         0.4431
     43 H1'         1.7718    1.9211    1.6015 H         1 ACP         0.1199
     44 H8          0.6089    2.4651   -2.2147 H         1 ACP         0.2941
     45 HN61       -2.5055    5.6680   -1.4503 H         1 ACP         0.4754
     46 HN62       -3.3462    6.4841   -0.1542 H         1 ACP         0.4754
     47 H2         -1.5932    4.4937    3.7066 H         1 ACP         0.0886
     48 H48        -2.8098    5.8270    2.1160 H         1 ACP         0.4707
@<TRIPOS>BOND
     1    1    2 2
     2    1    3 1
     3    1    4 1
     4    1    8 1
     5    3   32 1
     6    4   33 1
     7    5    6 2
     8    5    7 1
     9    5    8 1
    10    5   12 1
    11    8   34 1
    12    8   35 1
    13    9   10 2
    14    9   11 1
    15    9   12 1
    16    9   13 1
    17   13   14 1
    18   14   15 1
    19   14   36 1
    20   14   37 1
    21   15   16 1
    22   15   17 1
    23   15   38 1
    24   16   21 1
    25   17   18 1
    26   17   19 1
    27   17   39 1
    28   18   40 1
    29   19   20 1
    30   19   21 1
    31   19   41 1
    32   20   42 1
    33   21   22 1
    34   21   43 1
    35   22   23 ar
    36   22   31 ar
    37   23   24 ar
    38   23   44 1
    39   24   25 ar
    40   25   26 ar
    41   25   31 ar
    42   26   27 1
    43   26   28 ar
    44   27   45 1
    45   27   46 1
    46   28   29 ar
    47   28   48 1
    48   29   30 ar
    49   29   47 1
    50   30   31 ar
@<TRIPOS>SUBSTRUCTURE
     1 ACP         1 GROUP 0 A     ****
@<TRIPOS>MOLECULE
[[5-(6-amino-1,8-dihydropurine-6,8-diylium-7-id-9-yl)-3,4-dihydroxy-tetrahydrofuran-2-yl]methoxy-oxido-phosphoryl]oxy-(phosphonomethyl)phosphinate
   48    50     1     0     0
SMALL
USER_CHARGES

@<TRIPOS>ATOM
      1 PG          0.7073   -3.3630   -5.8508 P.3       1 ACP         1.6558
      2 O1G        -0.4219   -3.3340   -4.8652 O.2       1 ACP        -0.9020
      3 O2G         0.5066   -4.3590   -7.1070 O.3       1 ACP        -0.8036
      4 O3G         2.1420   -3.7967   -5.2482 O.3       1 ACP        -0.8036
      5 PB          1.5391   -0.2631   -5.6817 P.3       1 ACP         1.4945
      6 O1B         0.4108    0.0444   -4.7247 O.co2     1 ACP        -0.8481
      7 O2B         2.0532    0.7518   -6.6763 O.co2     1 ACP        -0.8481
      8 C3B         1.0538   -1.7721   -6.6347 C.3       1 ACP        -0.6636
      9 PA          3.9531   -0.2088   -3.9567 P.3       1 ACP         1.6023
     10 O1A         4.6365    0.8495   -4.7954 O.co2     1 ACP        -0.8673
     11 O2A         4.7595   -1.2976   -3.2826 O.co2     1 ACP        -0.8673
     12 O3A         2.7887   -0.9130   -4.8599 O.3       1 ACP        -0.8150
     13 O5'         3.0199    0.5139   -2.8245 O.3       1 ACP        -0.5522
     14 C5'         2.2816   -0.2918   -1.9206 C.3       1 ACP         0.2181
     15 C4'         2.7248    0.0226   -0.4980 C.3       1 ACP         0.0915
     16 O4'         2.4697    1.4219   -0.2462 O.3       1 ACP        -0.3675
     17 C3'         1.9404   -0.7419    0.5596 C.3       1 ACP         0.0748
     18 O3'         2.7418   -0.8086    1.7389 O.3       1 ACP        -0.5646
     19 C2'         0.7477    0.1630    0.7858 C.3       1 ACP         0.0804
     20 O2'         0.1373   -0.0577    2.0407 O.3       1 ACP        -0.5882
     21 C1'         1.3733    1.5427    0.6747 C.3       1 ACP         0.3809
     22 N9          0.4520    2.5240    0.1767 N.pl3     1 ACP        -0.4412
     23 C8          0.1798    2.8712   -1.2933 C.ar      1 ACP         0.1936
     24 N7         -0.7494    3.8400   -1.3610 N.2       1 ACP        -0.2746
     25 C5         -1.0173    4.0603   -0.0358 C.ar      1 ACP        -0.1386
     26 C6         -2.0105    5.0717    0.4241 C.ar      1 ACP         0.4778
     27 N6         -2.6723    5.7982   -0.4628 N.pl3     1 ACP        -0.8290
     28 N1         -2.1445    5.1522    1.7502 N.pl3     1 ACP        -0.6985
     29 C2         -1.3755    4.3143    2.6426 C.ar      1 ACP         0.6179
     30 N3         -0.5075    3.4292    2.2616 N.ar      1 ACP        -0.5105
     31 C4         -0.3667    3.3425    0.9070 C.ar      1 ACP         0.2753
     32 HOG2        0.3855   -5.3177   -6.9385 H         1 ACP         0.4487
     33 HOG3        2.2360   -4.6812   -4.8348 H         1 ACP         0.4487
     34 H3B1        1.8564   -1.9303   -7.3639 H         1 ACP         0.1088
     35 H3B2        0.1581   -1.4929   -7.2012 H         1 ACP         0.1088
     36 H5'1        1.2154   -0.0780   -2.0455 H         1 ACP         0.0327
     37 H5'2        2.4646   -1.3453   -2.1548 H         1 ACP         0.0327
     38 H4'         3.8046   -0.1390   -0.4011 H         1 ACP         0.1275
     39 H3'         1.6787   -1.7627    0.2719 H         1 ACP         0.0637
     40 HO3'        2.2231   -1.2979    2.3952 H         1 ACP         0.4127
     41 H2'         0.0002   -0.0084   -0.0014 H         1 ACP         0.0692
     42 HO2'       -0.1554   -0.9852    2.0577 H         1 ACP         0.4431
     43 H1'         1.7718    1.9211    1.6015 H         1 ACP         0.1199
     44 H8          0.6089    2.4651   -2.2147 H         1 ACP         0.2941
     45 HN61       -2.5055    5.6680   -1.4503 H         1 ACP         0.4754
     46 HN62       -3.3462    6.4841   -0.1542 H         1 ACP         0.4754
     47 H2         -1.5932    4.4937    3.7066 H         1 ACP         0.0886
     48 H48        -2.8098    5.8270    2.1160 H         1 ACP         0.4707
@<TRIPOS>BOND
     1    1    2 2
     2    1    3 1
     3    1    4 1
     4    1    8 1
     5    3   32 1
     6    4   33 1
     7    5    6 2
     8    5    7 1
     9    5    8 1
    10    5   12 1
    11    8   34 1
    12    8   35 1
    13    9   10 2
    14    9   11 1
    15    9   12 1
    16    9   13 1
    17   13   14 1
    18   14   15 1
    19   14   36 1
    20   14   37 1
    21   15   16 1
    22   15   17 1
    23   15   38 1
    24   16   21 1
    25   17   18 1
    26   17   19 1
    27   17   39 1
    28   18   40 1
    29   19   20 1
    30   19   21 1
    31   19   41 1
    32   20   42 1
    33   21   22 1
    34   21   43 1
    35   22   23 ar
    36   22   31 ar
    37   23   24 ar
    38   23   44 1
    39   24   25 ar
    40   25   26 ar
    41   25   31 ar
    42   26   27 1
    43   26   28 ar
    44   27   45 1
    45   27   46 1
    46   28   29 ar
    47   28   48 1
    48   29   30 ar
    49   29   47 1
    50   30   31 ar
@<TRIPOS>SUBSTRUCTURE
     1 ACP         1 GROUP 0 A     ****
@<TRIPOS>MOLECULE
[[5-(6-amino-1,8-dihydropurine-6,8-diylium-7-id-9-yl)-3,4-dihydroxy-tetrahydrofuran-2-yl]methoxy-oxido-phosphoryl]oxy-(phosphonomethyl)phosphinate
   48    50     1     0     0
SMALL
USER_CHARGES

@<TRIPOS>ATOM
      1 PG         -1.0821   -1.4619   -4.7840 P.3       1 ACP         1.6558
      2 O1G        -0.1897   -1.8706   -3.6509 O.2       1 ACP        -0.9020
      3 O2G        -2.2898   -0.4633   -4.3908 O.3       1 ACP        -0.8036
      4 O3G        -1.8260   -2.6730   -5.5517 O.3       1 ACP        -0.8036
      5 PB          0.6609    1.0118   -5.8669 P.3       1 ACP         1.4945
      6 O1B        -0.3458    2.0163   -5.3558 O.co2     1 ACP        -0.8481
      7 O2B         1.4932    1.2608   -7.1033 O.co2     1 ACP        -0.8481
      8 C3B        -0.2375   -0.5850   -6.1194 C.3       1 ACP        -0.6636
      9 PA          2.9201    1.2533   -3.9581 P.3       1 ACP         1.6023
     10 O1A         2.4599    2.5248   -3.2784 O.co2     1 ACP        -0.8673
     11 O2A         4.0401    1.2850   -4.9752 O.co2     1 ACP        -0.8673
     12 O3A         1.6231    0.5326   -4.6407 O.3       1 ACP        -0.8150
     13 O5'         3.2885    0.1337   -2.8242 O.3       1 ACP        -0.5522
     14 C5'         2.2816   -0.2918   -1.9206 C.3       1 ACP         0.2181
     15 C4'         2.7248    0.0226   -0.4980 C.3       1 ACP         0.0915
     16 O4'         2.4697    1.4219   -0.2462 O.3       1 ACP        -0.3675
     17 C3'         1.9404   -0.7419    0.5596 C.3       1 ACP         0.0748
     18 O3'         2.7418   -0.8086    1.7389 O.3       1 ACP        -0.5646
     19 C2'         0.7477    0.1630    0.7858 C.3       1 ACP         0.0804
     20 O2'         0.1373   -0.0577    2.0407 O.3       1 ACP        -0.5882
     21 C1'         1.3733    1.5427    0.6747 C.3       1 ACP         0.3809
     22 N9          0.4520    2.5240    0.1767 N.pl3     1 ACP        -0.4412
     23 C8         -0.3054    2.4845   -1.1576 C.ar      1 ACP         0.1936
     24 N7         -1.0755    3.5806   -1.2691 N.2       1 ACP        -0.2746
     25 C5         -0.8043    4.2306   -0.0942 C.ar      1 ACP        -0.1386
     26 C6         -1.4324    5.5335    0.2646 C.ar      1 ACP         0.4778
     27 N6         -2.2885    6.1054   -0.5675 N.pl3     1 ACP        -0.8290
     28 N1         -1.0537    6.0229    1.4478 N.pl3     1 ACP        -0.6985
     29 C2         -0.1096    5.3242    2.2908 C.ar      1 ACP         0.6179
     30 N3          0.4468    4.1904    1.9960 N.ar      1 ACP        -0.5105
     31 C4          0.0631    3.6855    0.7877 C.ar      1 ACP         0.2753
     32 HOG2       -2.9536   -0.7572   -3.7313 H         1 ACP         0.4487
     33 HOG3       -2.4286   -3.2579   -5.0450 H         1 ACP         0.4487
     34 H3B1        0.4987   -1.2715   -6.5524 H         1 ACP         0.1088
     35 H3B2       -0.9856   -0.3878   -6.8957 H         1 ACP         0.1088
     36 H5'1        1.3501    0.2325   -2.1561 H         1 ACP         0.0327
     37 H5'2        2.1268   -1.3683   -2.0445 H         1 ACP         0.0327
     38 H4'         3.8046   -0.1390   -0.4011 H         1 ACP         0.1275
     39 H3'         1.6787   -1.7627    0.2719 H         1 ACP         0.0637
     40 HO3'        3.5553   -1.2733    1.4913 H         1 ACP         0.4127
     41 H2'         0.0002   -0.0084   -0.0014 H         1 ACP         0.0692
     42 HO2'       -0.1554   -0.9852    2.0577 H         1 ACP         0.4431
     43 H1'         1.7718    1.9211    1.6015 H         1 ACP         0.1199
     44 H8         -0.2991    1.7413   -1.9611 H         1 ACP         0.2941
     45 HN61       -2.5167    5.6603   -1.4447 H         1 ACP         0.4754
     46 HN62       -2.7159    6.9882   -0.3270 H         1 ACP         0.4754
     47 H2          0.1059    5.8491    3.2340 H         1 ACP         0.0886
     48 H48        -1.4532    6.9099    1.7401 H         1 ACP         0.4707
@<TRIPOS>BOND
     1    1    2 2
     2    1    3 1
     3    1    4 1
     4    1    8 1
     5    3   32 1
     6    4   33 1
     7    5    6 2
     8    5    7 1
     9    5    8 1
    10    5   12 1
    11    8   34 1
    12    8   35 1
    13    9   10 2
    14    9   11 1
    15    9   12 1
    16    9   13 1
    17   13   14 1
    18   14   15 1
    19   14   36 1
    20   14   37 1
    21   15   16 1
    22   15   17 1
    23   15   38 1
    24   16   21 1
    25   17   18 1
    26   17   19 1
    27   17   39 1
    28   18   40 1
    29   19   20 1
    30   19   21 1
    31   19   41 1
    32   20   42 1
    33   21   22 1
    34   21   43 1
    35   22   23 ar
    36   22   31 ar
    37   23   24 ar
    38   23   44 1
    39   24   25 ar
    40   25   26 ar
    41   25   31 ar
    42   26   27 1
    43   26   28 ar
    44   27   45 1
    45   27   46 1
    46   28   29 ar
    47   28   48 1
    48   29   30 ar
    49   29   47 1
    50   30   31 ar
@<TRIPOS>SUBSTRUCTURE
     1 ACP         1 GROUP 0 A     ****
@<TRIPOS>MOLECULE
[[5-(6-amino-1,8-dihydropurine-6,8-diylium-7-id-9-yl)-3,4-dihydroxy-tetrahydrofuran-2-yl]methoxy-oxido-phosphoryl]oxy-(phosphonomethyl)phosphinate
   48    50     1     0     0
SMALL
USER_CHARGES

@<TRIPOS>ATOM
      1 PG          2.5688   -5.1126   -4.1365 P.3       1 ACP         1.6558
      2 O1G         1.2818   -4.3441   -4.1554 O.2       1 ACP        -0.9020
      3 O2G         2.5639   -6.4950   -4.9727 O.3       1 ACP        -0.8036
      4 O3G         3.0895   -5.5562   -2.6730 O.3       1 ACP        -0.8036
      5 PB          4.5910   -2.6145   -4.1321 P.3       1 ACP         1.4945
      6 O1B         5.7750   -2.1878   -4.9685 O.co2     1 ACP        -0.8481
      7 O2B         4.6780   -2.7739   -2.6319 O.co2     1 ACP        -0.8481
      8 C3B         3.9814   -4.2184   -4.8225 C.3       1 ACP        -0.6636
      9 PA          3.0640   -0.0874   -4.4291 P.3       1 ACP         1.6023
     10 O1A         1.6224    0.2104   -4.7809 O.co2     1 ACP        -0.8673
     11 O2A         4.1945    0.5982   -5.1653 O.co2     1 ACP        -0.8673
     12 O3A         3.2953   -1.7018   -4.5162 O.3       1 ACP        -0.8150
     13 O5'         3.2885    0.1337   -2.8242 O.3       1 ACP        -0.5522
     14 C5'         2.2816   -0.2918   -1.9206 C.3       1 ACP         0.2181
     15 C4'         2.7248    0.0226   -0.4980 C.3       1 ACP         0.0915
     16 O4'         2.4697    1.4219   -0.2462 O.3       1 ACP        -0.3675
     17 C3'         1.9404   -0.7419    0.5596 C.3       1 ACP         0.0748
     18 O3'         2.7418   -0.8086    1.7389 O.3       1 ACP        -0.5646
     19 C2'         0.7477    0.1630    0.7858 C.3       1 ACP         0.0804
     20 O2'         0.1373   -0.0577    2.0407 O.3       1 ACP        -0.5882
     21 C1'         1.3733    1.5427    0.6747 C.3       1 ACP         0.3809
     22 N9          0.4520    2.5240    0.1767 N.pl3     1 ACP        -0.4412
     23 C8          0.5793    3.3338   -1.1209 C.ar      1 ACP         0.1936
     24 N7         -0.4807    4.1508   -1.2458 N.2       1 ACP        -0.2746
     25 C5         -1.1921    3.8572   -0.1126 C.ar      1 ACP        -0.1386
     26 C6         -2.4855    4.5203    0.2163 C.ar      1 ACP         0.4778
     27 N6         -2.9873    5.4319   -0.6020 N.pl3     1 ACP        -0.8290
     28 N1         -3.0414    4.1119    1.3596 N.pl3     1 ACP        -0.6985
     29 C2         -2.4169    3.1071    2.1904 C.ar      1 ACP         0.6179
     30 N3         -1.2928    2.5191    1.9210 N.ar      1 ACP        -0.5105
     31 C4         -0.7202    2.9326    0.7534 C.ar      1 ACP         0.2753
     32 HOG2        1.9267   -7.1982   -4.7244 H         1 ACP         0.4487
     33 HOG3        2.5214   -6.1356   -2.1220 H         1 ACP         0.4487
     34 H3B1        4.8434   -4.8947   -4.8007 H         1 ACP         0.1088
     35 H3B2        3.7549   -4.0234   -5.8769 H         1 ACP         0.1088
     36 H5'1        1.3501    0.2325   -2.1561 H         1 ACP         0.0327
     37 H5'2        2.1268   -1.3683   -2.0445 H         1 ACP         0.0327
     38 H4'         3.8046   -0.1390   -0.4011 H         1 ACP         0.1275
     39 H3'         1.6787   -1.7627    0.2719 H         1 ACP         0.0637
     40 HO3'        2.2231   -1.2979    2.3952 H         1 ACP         0.4127
     41 H2'         0.0002   -0.0084   -0.0014 H         1 ACP         0.0692
     42 HO2'       -0.1554   -0.9852    2.0577 H         1 ACP         0.4431
     43 H1'         1.7718    1.9211    1.6015 H         1 ACP         0.1199
     44 H8          1.3565    3.3309   -1.8916 H         1 ACP         0.2941
     45 HN61       -2.4952    5.6785   -1.4487 H         1 ACP         0.4754
     46 HN62       -3.8637    5.8828   -0.3819 H         1 ACP         0.4754
     47 H2         -2.9911    2.8734    3.1000 H         1 ACP         0.0886
     48 H48        -3.9253    4.5332    1.6302 H         1 ACP         0.4707
@<TRIPOS>BOND
     1    1    2 2
     2    1    3 1
     3    1    4 1
     4    1    8 1
     5    3   32 1
     6    4   33 1
     7    5    6 2
     8    5    7 1
     9    5    8 1
    10    5   12 1
    11    8   34 1
    12    8   35 1
    13    9   10 2
    14    9   11 1
    15    9   12 1
    16    9   13 1
    17   13   14 1
    18   14   15 1
    19   14   36 1
    20   14   37 1
    21   15   16 1
    22   15   17 1
    23   15   38 1
    24   16   21 1
    25   17   18 1
    26   17   19 1
    27   17   39 1
    28   18   40 1
    29   19   20 1
    30   19   21 1
    31   19   41 1
    32   20   42 1
    33   21   22 1
    34   21   43 1
    35   22   23 ar
    36   22   31 ar
    37   23   24 ar
    38   23   44 1
    39   24   25 ar
    40   25   26 ar
    41   25   31 ar
    42   26   27 1
    43   26   28 ar
    44   27   45 1
    45   27   46 1
    46   28   29 ar
    47   28   48 1
    48   29   30 ar
    49   29   47 1
    50   30   31 ar
@<TRIPOS>SUBSTRUCTURE
     1 ACP         1 GROUP 0 A     ****
@<TRIPOS>MOLECULE
[[5-(6-amino-1,8-dihydropurine-6,8-diylium-7-id-9-yl)-3,4-dihydroxy-tetrahydrofuran-2-yl]methoxy-oxido-phosphoryl]oxy-(phosphonomethyl)phosphinate
   48    50     1     0     0
SMALL
USER_CHARGES

@<TRIPOS>ATOM
      1 PG          1.3879   -3.0640   -7.2509 P.3       1 ACP         1.6558
      2 O1G         2.7040   -3.6277   -6.8065 O.2       1 ACP        -0.9020
      3 O2G         0.1953   -4.1399   -7.4249 O.3       1 ACP        -0.8036
      4 O3G         1.4093   -2.2886   -8.6679 O.3       1 ACP        -0.8036
      5 PB          1.5391   -0.2631   -5.6817 P.3       1 ACP         1.4945
      6 O1B         0.6389    0.4833   -4.7245 O.co2     1 ACP        -0.8481
      7 O2B         2.0379    0.3536   -6.9679 O.co2     1 ACP        -0.8481
      8 C3B         0.6815   -1.8413   -6.1232 C.3       1 ACP        -0.6636
      9 PA          3.9531   -0.2088   -3.9567 P.3       1 ACP         1.6023
     10 O1A         4.6365    0.8495   -4.7954 O.co2     1 ACP        -0.8673
     11 O2A         4.7595   -1.2976   -3.2826 O.co2     1 ACP        -0.8673
     12 O3A         2.7887   -0.9130   -4.8599 O.3       1 ACP        -0.8150
     13 O5'         3.0199    0.5139   -2.8245 O.3       1 ACP        -0.5522
     14 C5'         2.2816   -0.2918   -1.9206 C.3       1 ACP         0.2181
     15 C4'         2.7248    0.0226   -0.4980 C.3       1 ACP         0.0915
     16 O4'         2.4697    1.4219   -0.2462 O.3       1 ACP        -0.3675
     17 C3'         1.9404   -0.7419    0.5596 C.3       1 ACP         0.0748
     18 O3'         2.7418   -0.8086    1.7389 O.3       1 ACP        -0.5646
     19 C2'         0.7477    0.1630    0.7858 C.3       1 ACP         0.0804
     20 O2'         0.1373   -0.0577    2.0407 O.3       1 ACP        -0.5882
     21 C1'         1.3733    1.5427    0.6747 C.3       1 ACP         0.3809
     22 N9          0.4520    2.5240    0.1767 N.pl3     1 ACP        -0.4412
     23 C8          0.1798    2.8712   -1.2933 C.ar      1 ACP         0.1936
     24 N7         -0.7494    3.8400   -1.3610 N.2       1 ACP        -0.2746
     25 C5         -1.0173    4.0603   -0.0358 C.ar      1 ACP        -0.1386
     26 C6         -2.0105    5.0717    0.4241 C.ar      1 ACP         0.4778
     27 N6         -2.6723    5.7982   -0.4628 N.pl3     1 ACP        -0.8290
     28 N1         -2.1445    5.1522    1.7502 N.pl3     1 ACP        -0.6985
     29 C2         -1.3755    4.3143    2.6426 C.ar      1 ACP         0.6179
     30 N3         -0.5075    3.4292    2.2616 N.ar      1 ACP        -0.5105
     31 C4         -0.3667    3.3425    0.9070 C.ar      1 ACP         0.2753
     32 HOG2        0.3069   -4.8731   -8.0668 H         1 ACP         0.4487
     33 HOG3        1.6809   -2.7781   -9.4733 H         1 ACP         0.4487
     34 H3B1       -0.2932   -1.5437   -6.5260 H         1 ACP         0.1088
     35 H3B2        0.4916   -2.3543   -5.1735 H         1 ACP         0.1088
     36 H5'1        1.2154   -0.0780   -2.0455 H         1 ACP         0.0327
     37 H5'2        2.4646   -1.3453   -2.1548 H         1 ACP         0.0327
     38 H4'         3.8046   -0.1390   -0.4011 H         1 ACP         0.1275
     39 H3'         1.6787   -1.7627    0.2719 H         1 ACP         0.0637
     40 HO3'        2.2231   -1.2979    2.3952 H         1 ACP         0.4127
     41 H2'         0.0002   -0.0084   -0.0014 H         1 ACP         0.0692
     42 HO2'       -0.6132    0.5577    2.1063 H         1 ACP         0.4431
     43 H1'         1.7718    1.9211    1.6015 H         1 ACP         0.1199
     44 H8          0.6089    2.4651   -2.2147 H         1 ACP         0.2941
     45 HN61       -2.5055    5.6680   -1.4503 H         1 ACP         0.4754
     46 HN62       -3.3462    6.4841   -0.1542 H         1 ACP         0.4754
     47 H2         -1.5932    4.4937    3.7066 H         1 ACP         0.0886
     48 H48        -2.8098    5.8270    2.1160 H         1 ACP         0.4707
@<TRIPOS>BOND
     1    1    2 2
     2    1    3 1
     3    1    4 1
     4    1    8 1
     5    3   32 1
     6    4   33 1
     7    5    6 2
     8    5    7 1
     9    5    8 1
    10    5   12 1
    11    8   34 1
    12    8   35 1
    13    9   10 2
    14    9   11 1
    15    9   12 1
    16    9   13 1
    17   13   14 1
    18   14   15 1
    19   14   36 1
    20   14   37 1
    21   15   16 1
    22   15   17 1
    23   15   38 1
    24   16   21 1
    25   17   18 1
    26   17   19 1
    27   17   39 1
    28   18   40 1
    29   19   20 1
    30   19   21 1
    31   19   41 1
    32   20   42 1
    33   21   22 1
    34   21   43 1
    35   22   23 ar
    36   22   31 ar
    37   23   24 ar
    38   23   44 1
    39   24   25 ar
    40   25   26 ar
    41   25   31 ar
    42   26   27 1
    43   26   28 ar
    44   27   45 1
    45   27   46 1
    46   28   29 ar
    47   28   48 1
    48   29   30 ar
    49   29   47 1
    50   30   31 ar
@<TRIPOS>SUBSTRUCTURE
     1 ACP         1 GROUP 0 A     ****
@<TRIPOS>MOLECULE
[[5-(6-amino-1,8-dihydropurine-6,8-diylium-7-id-9-yl)-3,4-dihydroxy-tetrahydrofuran-2-yl]methoxy-oxido-phosphoryl]oxy-(phosphonomethyl)phosphinate
   48    50     1     0     0
SMALL
USER_CHARGES

@<TRIPOS>ATOM
      1 PG         -1.2687   -1.7641   -4.8136 P.3       1 ACP         1.6558
      2 O1G        -0.7064   -1.6955   -3.4256 O.2       1 ACP        -0.9020
      3 O2G        -2.8548   -1.4817   -4.9346 O.3       1 ACP        -0.8036
      4 O3G        -1.0762   -3.1785   -5.5700 O.3       1 ACP        -0.8036
      5 PB          1.2542   -0.5445   -6.3877 P.3       1 ACP         1.4945
      6 O1B         1.4640    0.5772   -7.3783 O.co2     1 ACP        -0.8481
      7 O2B         1.6754   -1.9666   -6.6774 O.co2     1 ACP        -0.8481
      8 C3B        -0.5472   -0.5774   -5.9698 C.3       1 ACP        -0.6636
      9 PA          3.3317   -0.0541   -4.3262 P.3       1 ACP         1.6023
     10 O1A         4.1267    0.9765   -5.0986 O.co2     1 ACP        -0.8673
     11 O2A         3.8308   -1.4772   -4.2013 O.co2     1 ACP        -0.8673
     12 O3A         1.8123   -0.0905   -4.9242 O.3       1 ACP        -0.8150
     13 O5'         3.0199    0.5139   -2.8245 O.3       1 ACP        -0.5522
     14 C5'         2.2816   -0.2918   -1.9206 C.3       1 ACP         0.2181
     15 C4'         2.7248    0.0226   -0.4980 C.3       1 ACP         0.0915
     16 O4'         2.4697    1.4219   -0.2462 O.3       1 ACP        -0.3675
     17 C3'         1.9404   -0.7419    0.5596 C.3       1 ACP         0.0748
     18 O3'         2.7418   -0.8086    1.7389 O.3       1 ACP        -0.5646
     19 C2'         0.7477    0.1630    0.7858 C.3       1 ACP         0.0804
     20 O2'         0.1373   -0.0577    2.0407 O.3       1 ACP        -0.5882
     21 C1'         1.3733    1.5427    0.6747 C.3       1 ACP         0.3809
     22 N9          0.4520    2.5240    0.1767 N.pl3     1 ACP        -0.4412
     23 C8         -0.3054    2.4845   -1.1576 C.ar      1 ACP         0.1936
     24 N7         -1.0755    3.5806   -1.2691 N.2       1 ACP        -0.2746
     25 C5         -0.8043    4.2306   -0.0942 C.ar      1 ACP        -0.1386
     26 C6         -1.4324    5.5335    0.2646 C.ar      1 ACP         0.4778
     27 N6         -2.2885    6.1054   -0.5675 N.pl3     1 ACP        -0.8290
     28 N1         -1.0537    6.0229    1.4478 N.pl3     1 ACP        -0.6985
     29 C2         -0.1096    5.3242    2.2908 C.ar      1 ACP         0.6179
     30 N3          0.4468    4.1904    1.9960 N.ar      1 ACP        -0.5105
     31 C4          0.0631    3.6855    0.7877 C.ar      1 ACP         0.2753
     32 HOG2       -3.4794   -2.0662   -4.4546 H         1 ACP         0.4487
     33 HOG3       -1.4665   -3.9863   -5.1735 H         1 ACP         0.4487
     34 H3B1       -1.0693   -0.6885   -6.9269 H         1 ACP         0.1088
     35 H3B2       -0.7846    0.4232   -5.5908 H         1 ACP         0.1088
     36 H5'1        1.2154   -0.0780   -2.0455 H         1 ACP         0.0327
     37 H5'2        2.4646   -1.3453   -2.1548 H         1 ACP         0.0327
     38 H4'         3.8046   -0.1390   -0.4011 H         1 ACP         0.1275
     39 H3'         1.6787   -1.7627    0.2719 H         1 ACP         0.0637
     40 HO3'        2.2231   -1.2979    2.3952 H         1 ACP         0.4127
     41 H2'         0.0002   -0.0084   -0.0014 H         1 ACP         0.0692
     42 HO2'       -0.1554   -0.9852    2.0577 H         1 ACP         0.4431
     43 H1'         1.7718    1.9211    1.6015 H         1 ACP         0.1199
     44 H8         -0.2991    1.7413   -1.9611 H         1 ACP         0.2941
     45 HN61       -2.5167    5.6603   -1.4447 H         1 ACP         0.4754
     46 HN62       -2.7159    6.9882   -0.3270 H         1 ACP         0.4754
     47 H2          0.1059    5.8491    3.2340 H         1 ACP         0.0886
     48 H48        -1.4532    6.9099    1.7401 H         1 ACP         0.4707
@<TRIPOS>BOND
     1    1    2 2
     2    1    3 1
     3    1    4 1
     4    1    8 1
     5    3   32 1
     6    4   33 1
     7    5    6 2
     8    5    7 1
     9    5    8 1
    10    5   12 1
    11    8   34 1
    12    8   35 1
    13    9   10 2
    14    9   11 1
    15    9   12 1
    16    9   13 1
    17   13   14 1
    18   14   15 1
    19   14   36 1
    20   14   37 1
    21   15   16 1
    22   15   17 1
    23   15   38 1
    24   16   21 1
    25   17   18 1
    26   17   19 1
    27   17   39 1
    28   18   40 1
    29   19   20 1
    30   19   21 1
    31   19   41 1
    32   20   42 1
    33   21   22 1
    34   21   43 1
    35   22   23 ar
    36   22   31 ar
    37   23   24 ar
    38   23   44 1
    39   24   25 ar
    40   25   26 ar
    41   25   31 ar
    42   26   27 1
    43   26   28 ar
    44   27   45 1
    45   27   46 1
    46   28   29 ar
    47   28   48 1
    48   29   30 ar
    49   29   47 1
    50   30   31 ar
@<TRIPOS>SUBSTRUCTURE
     1 ACP         1 GROUP 0 A     ****
@<TRIPOS>MOLECULE
[[5-(6-amino-1,8-dihydropurine-6,8-diylium-7-id-9-yl)-3,4-dihydroxy-tetrahydrofuran-2-yl]methoxy-oxido-phosphoryl]oxy-(phosphonomethyl)phosphinate
   48    50     1     0     0
SMALL
USER_CHARGES

@<TRIPOS>ATOM
      1 PG          0.0956    2.1856   -6.1068 P.3       1 ACP         1.6558
      2 O1G         0.6707    2.5510   -4.7715 O.2       1 ACP        -0.9020
      3 O2G         0.9123    2.7349   -7.3880 O.3       1 ACP        -0.8036
      4 O3G        -1.4146    2.6937   -6.3731 O.3       1 ACP        -0.8036
      5 PB          1.4715   -0.7020   -6.4206 P.3       1 ACP         1.4945
      6 O1B         2.3999   -0.2031   -7.5035 O.co2     1 ACP        -0.8481
      7 O2B         0.9669   -2.1259   -6.3827 O.co2     1 ACP        -0.8481
      8 C3B        -0.0082    0.4077   -6.4127 C.3       1 ACP        -0.6636
      9 PA          3.4810   -0.6670   -4.2373 P.3       1 ACP         1.6023
     10 O1A         4.6070   -0.0329   -5.0251 O.co2     1 ACP        -0.8673
     11 O2A         3.4859   -2.1517   -3.9447 O.co2     1 ACP        -0.8673
     12 O3A         2.0662   -0.2878   -4.9597 O.3       1 ACP        -0.8150
     13 O5'         3.2885    0.1337   -2.8242 O.3       1 ACP        -0.5522
     14 C5'         2.2816   -0.2918   -1.9206 C.3       1 ACP         0.2181
     15 C4'         2.7248    0.0226   -0.4980 C.3       1 ACP         0.0915
     16 O4'         2.4697    1.4219   -0.2462 O.3       1 ACP        -0.3675
     17 C3'         1.9404   -0.7419    0.5596 C.3       1 ACP         0.0748
     18 O3'         2.7418   -0.8086    1.7389 O.3       1 ACP        -0.5646
     19 C2'         0.7477    0.1630    0.7858 C.3       1 ACP         0.0804
     20 O2'         0.1373   -0.0577    2.0407 O.3       1 ACP        -0.5882
     21 C1'         1.3733    1.5427    0.6747 C.3       1 ACP         0.3809
     22 N9          0.4520    2.5240    0.1767 N.pl3     1 ACP        -0.4412
     23 C8          0.1798    2.8712   -1.2933 C.ar      1 ACP         0.1936
     24 N7         -0.7494    3.8400   -1.3610 N.2       1 ACP        -0.2746
     25 C5         -1.0173    4.0603   -0.0358 C.ar      1 ACP        -0.1386
     26 C6         -2.0105    5.0717    0.4241 C.ar      1 ACP         0.4778
     27 N6         -2.6723    5.7982   -0.4628 N.pl3     1 ACP        -0.8290
     28 N1         -2.1445    5.1522    1.7502 N.pl3     1 ACP        -0.6985
     29 C2         -1.3755    4.3143    2.6426 C.ar      1 ACP         0.6179
     30 N3         -0.5075    3.4292    2.2616 N.ar      1 ACP        -0.5105
     31 C4         -0.3667    3.3425    0.9070 C.ar      1 ACP         0.2753
     32 HOG2        1.0296    3.7026   -7.4974 H         1 ACP         0.4487
     33 HOG3       -1.6035    3.6558   -6.3487 H         1 ACP         0.4487
     34 H3B1       -0.6905   -0.0171   -5.6678 H         1 ACP         0.1088
     35 H3B2       -0.4838    0.2789   -7.3916 H         1 ACP         0.1088
     36 H5'1        1.3501    0.2325   -2.1561 H         1 ACP         0.0327
     37 H5'2        2.1268   -1.3683   -2.0445 H         1 ACP         0.0327
     38 H4'         3.8046   -0.1390   -0.4011 H         1 ACP         0.1275
     39 H3'         1.6787   -1.7627    0.2719 H         1 ACP         0.0637
     40 HO3'        2.2231   -1.2979    2.3952 H         1 ACP         0.4127
     41 H2'         0.0002   -0.0084   -0.0014 H         1 ACP         0.0692
     42 HO2'       -0.6132    0.5577    2.1063 H         1 ACP         0.4431
     43 H1'         1.7718    1.9211    1.6015 H         1 ACP         0.1199
     44 H8          0.6089    2.4651   -2.2147 H         1 ACP         0.2941
     45 HN61       -2.5055    5.6680   -1.4503 H         1 ACP         0.4754
     46 HN62       -3.3462    6.4841   -0.1542 H         1 ACP         0.4754
     47 H2         -1.5932    4.4937    3.7066 H         1 ACP         0.0886
     48 H48        -2.8098    5.8270    2.1160 H         1 ACP         0.4707
@<TRIPOS>BOND
     1    1    2 2
     2    1    3 1
     3    1    4 1
     4    1    8 1
     5    3   32 1
     6    4   33 1
     7    5    6 2
     8    5    7 1
     9    5    8 1
    10    5   12 1
    11    8   34 1
    12    8   35 1
    13    9   10 2
    14    9   11 1
    15    9   12 1
    16    9   13 1
    17   13   14 1
    18   14   15 1
    19   14   36 1
    20   14   37 1
    21   15   16 1
    22   15   17 1
    23   15   38 1
    24   16   21 1
    25   17   18 1
    26   17   19 1
    27   17   39 1
    28   18   40 1
    29   19   20 1
    30   19   21 1
    31   19   41 1
    32   20   42 1
    33   21   22 1
    34   21   43 1
    35   22   23 ar
    36   22   31 ar
    37   23   24 ar
    38   23   44 1
    39   24   25 ar
    40   25   26 ar
    41   25   31 ar
    42   26   27 1
    43   26   28 ar
    44   27   45 1
    45   27   46 1
    46   28   29 ar
    47   28   48 1
    48   29   30 ar
    49   29   47 1
    50   30   31 ar
@<TRIPOS>SUBSTRUCTURE
     1 ACP         1 GROUP 0 A     ****
@<TRIPOS>MOLECULE
[[5-(6-amino-1,8-dihydropurine-6,8-diylium-7-id-9-yl)-3,4-dihydroxy-tetrahydrofuran-2-yl]methoxy-oxido-phosphoryl]oxy-(phosphonomethyl)phosphinate
   48    50     1     0     0
SMALL
USER_CHARGES

@<TRIPOS>ATOM
      1 PG          1.2471   -4.0863   -5.2652 P.3       1 ACP         1.6558
      2 O1G         0.3616   -5.2228   -4.8512 O.2       1 ACP        -0.9020
      3 O2G         2.1403   -4.3479   -6.5857 O.3       1 ACP        -0.8036
      4 O3G         2.3292   -3.6139   -4.1626 O.3       1 ACP        -0.8036
      5 PB          1.2216   -1.0095   -6.1939 P.3       1 ACP         1.4945
      6 O1B         0.1546    0.0352   -6.4253 O.co2     1 ACP        -0.8481
      7 O2B         2.2203   -1.3934   -7.2610 O.co2     1 ACP        -0.8481
      8 C3B         0.3652   -2.5585   -5.6574 C.3       1 ACP        -0.6636
      9 PA          2.8587    0.6155   -4.3269 P.3       1 ACP         1.6023
     10 O1A         1.9171    1.7961   -4.2263 O.co2     1 ACP        -0.8673
     11 O2A         4.1093    0.6971   -5.1750 O.co2     1 ACP        -0.8673
     12 O3A         2.0007   -0.6924   -4.7968 O.3       1 ACP        -0.8150
     13 O5'         3.2885    0.1337   -2.8242 O.3       1 ACP        -0.5522
     14 C5'         2.2816   -0.2918   -1.9206 C.3       1 ACP         0.2181
     15 C4'         2.7248    0.0226   -0.4980 C.3       1 ACP         0.0915
     16 O4'         2.4697    1.4219   -0.2462 O.3       1 ACP        -0.3675
     17 C3'         1.9404   -0.7419    0.5596 C.3       1 ACP         0.0748
     18 O3'         2.7418   -0.8086    1.7389 O.3       1 ACP        -0.5646
     19 C2'         0.7477    0.1630    0.7858 C.3       1 ACP         0.0804
     20 O2'         0.1373   -0.0577    2.0407 O.3       1 ACP        -0.5882
     21 C1'         1.3733    1.5427    0.6747 C.3       1 ACP         0.3809
     22 N9          0.4520    2.5240    0.1767 N.pl3     1 ACP        -0.4412
     23 C8         -0.3054    2.4845   -1.1576 C.ar      1 ACP         0.1936
     24 N7         -1.0755    3.5806   -1.2691 N.2       1 ACP        -0.2746
     25 C5         -0.8043    4.2306   -0.0942 C.ar      1 ACP        -0.1386
     26 C6         -1.4324    5.5335    0.2646 C.ar      1 ACP         0.4778
     27 N6         -2.2885    6.1054   -0.5675 N.pl3     1 ACP        -0.8290
     28 N1         -1.0537    6.0229    1.4478 N.pl3     1 ACP        -0.6985
     29 C2         -0.1096    5.3242    2.2908 C.ar      1 ACP         0.6179
     30 N3          0.4468    4.1904    1.9960 N.ar      1 ACP        -0.5105
     31 C4          0.0631    3.6855    0.7877 C.ar      1 ACP         0.2753
     32 HOG2        2.7819   -5.0898   -6.5860 H         1 ACP         0.4487
     33 HOG3        2.9955   -4.2592   -3.8438 H         1 ACP         0.4487
     34 H3B1       -0.3550   -2.7866   -6.4512 H         1 ACP         0.1088
     35 H3B2       -0.2150   -2.2869   -4.7682 H         1 ACP         0.1088
     36 H5'1        1.3501    0.2325   -2.1561 H         1 ACP         0.0327
     37 H5'2        2.1268   -1.3683   -2.0445 H         1 ACP         0.0327
     38 H4'         3.8046   -0.1390   -0.4011 H         1 ACP         0.1275
     39 H3'         1.6787   -1.7627    0.2719 H         1 ACP         0.0637
     40 HO3'        2.2231   -1.2979    2.3952 H         1 ACP         0.4127
     41 H2'         0.0002   -0.0084   -0.0014 H         1 ACP         0.0692
     42 HO2'       -0.6132    0.5577    2.1063 H         1 ACP         0.4431
     43 H1'         1.7718    1.9211    1.6015 H         1 ACP         0.1199
     44 H8         -0.2991    1.7413   -1.9611 H         1 ACP         0.2941
     45 HN61       -2.5167    5.6603   -1.4447 H         1 ACP         0.4754
     46 HN62       -2.7159    6.9882   -0.3270 H         1 ACP         0.4754
     47 H2          0.1059    5.8491    3.2340 H         1 ACP         0.0886
     48 H48        -1.4532    6.9099    1.7401 H         1 ACP         0.4707
@<TRIPOS>BOND
     1    1    2 2
     2    1    3 1
     3    1    4 1
     4    1    8 1
     5    3   32 1
     6    4   33 1
     7    5    6 2
     8    5    7 1
     9    5    8 1
    10    5   12 1
    11    8   34 1
    12    8   35 1
    13    9   10 2
    14    9   11 1
    15    9   12 1
    16    9   13 1
    17   13   14 1
    18   14   15 1
    19   14   36 1
    20   14   37 1
    21   15   16 1
    22   15   17 1
    23   15   38 1
    24   16   21 1
    25   17   18 1
    26   17   19 1
    27   17   39 1
    28   18   40 1
    29   19   20 1
    30   19   21 1
    31   19   41 1
    32   20   42 1
    33   21   22 1
    34   21   43 1
    35   22   23 ar
    36   22   31 ar
    37   23   24 ar
    38   23   44 1
    39   24   25 ar
    40   25   26 ar
    41   25   31 ar
    42   26   27 1
    43   26   28 ar
    44   27   45 1
    45   27   46 1
    46   28   29 ar
    47   28   48 1
    48   29   30 ar
    49   29   47 1
    50   30   31 ar
@<TRIPOS>SUBSTRUCTURE
     1 ACP         1 GROUP 0 A     ****
@<TRIPOS>MOLECULE
[[5-(6-amino-1,8-dihydropurine-6,8-diylium-7-id-9-yl)-3,4-dihydroxy-tetrahydrofuran-2-yl]methoxy-oxido-phosphoryl]oxy-(phosphonomethyl)phosphinate
   48    50     1     0     0
SMALL
USER_CHARGES

@<TRIPOS>ATOM
      1 PG          3.8646   -4.7184   -1.6815 P.3       1 ACP         1.6558
      2 O1G         2.6100   -5.3977   -2.1420 O.2       1 ACP        -0.9020
      3 O2G         4.7226   -5.5227   -0.5737 O.3       1 ACP        -0.8036
      4 O3G         3.6592   -3.2603   -1.0172 O.3       1 ACP        -0.8036
      5 PB          4.6995   -3.3625   -4.4733 P.3       1 ACP         1.4945
      6 O1B         3.5370   -4.0033   -5.1955 O.co2     1 ACP        -0.8481
      7 O2B         6.0145   -3.0720   -5.1588 O.co2     1 ACP        -0.8481
      8 C3B         5.0686   -4.4076   -2.9926 C.3       1 ACP        -0.6636
      9 PA          3.4810   -0.6670   -4.2373 P.3       1 ACP         1.6023
     10 O1A         2.1230   -1.0218   -4.8033 O.co2     1 ACP        -0.8673
     11 O2A         4.4926    0.0849   -5.0747 O.co2     1 ACP        -0.8673
     12 O3A         4.1836   -2.0330   -3.6824 O.3       1 ACP        -0.8150
     13 O5'         3.2885    0.1337   -2.8242 O.3       1 ACP        -0.5522
     14 C5'         2.2816   -0.2918   -1.9206 C.3       1 ACP         0.2181
     15 C4'         2.7248    0.0226   -0.4980 C.3       1 ACP         0.0915
     16 O4'         2.4697    1.4219   -0.2462 O.3       1 ACP        -0.3675
     17 C3'         1.9404   -0.7419    0.5596 C.3       1 ACP         0.0748
     18 O3'         2.7418   -0.8086    1.7389 O.3       1 ACP        -0.5646
     19 C2'         0.7477    0.1630    0.7858 C.3       1 ACP         0.0804
     20 O2'         0.1373   -0.0577    2.0407 O.3       1 ACP        -0.5882
     21 C1'         1.3733    1.5427    0.6747 C.3       1 ACP         0.3809
     22 N9          0.4520    2.5240    0.1767 N.pl3     1 ACP        -0.4412
     23 C8          0.1798    2.8712   -1.2933 C.ar      1 ACP         0.1936
     24 N7         -0.7494    3.8400   -1.3610 N.2       1 ACP        -0.2746
     25 C5         -1.0173    4.0603   -0.0358 C.ar      1 ACP        -0.1386
     26 C6         -2.0105    5.0717    0.4241 C.ar      1 ACP         0.4778
     27 N6         -2.6723    5.7982   -0.4628 N.pl3     1 ACP        -0.8290
     28 N1         -2.1445    5.1522    1.7502 N.pl3     1 ACP        -0.6985
     29 C2         -1.3755    4.3143    2.6426 C.ar      1 ACP         0.6179
     30 N3         -0.5075    3.4292    2.2616 N.ar      1 ACP        -0.5105
     31 C4         -0.3667    3.3425    0.9070 C.ar      1 ACP         0.2753
     32 HOG2        4.3041   -5.7381    0.2869 H         1 ACP         0.4487
     33 HOG3        3.1006   -3.1779   -0.2152 H         1 ACP         0.4487
     34 H3B1        5.9543   -3.9587   -2.5290 H         1 ACP         0.1088
     35 H3B2        5.3738   -5.3845   -3.3847 H         1 ACP         0.1088
     36 H5'1        1.3501    0.2325   -2.1561 H         1 ACP         0.0327
     37 H5'2        2.1268   -1.3683   -2.0445 H         1 ACP         0.0327
     38 H4'         3.8046   -0.1390   -0.4011 H         1 ACP         0.1275
     39 H3'         1.6787   -1.7627    0.2719 H         1 ACP         0.0637
     40 HO3'        3.5553   -1.2733    1.4913 H         1 ACP         0.4127
     41 H2'         0.0002   -0.0084   -0.0014 H         1 ACP         0.0692
     42 HO2'       -0.1554   -0.9852    2.0577 H         1 ACP         0.4431
     43 H1'         1.7718    1.9211    1.6015 H         1 ACP         0.1199
     44 H8          0.6089    2.4651   -2.2147 H         1 ACP         0.2941
     45 HN61       -2.5055    5.6680   -1.4503 H         1 ACP         0.4754
     46 HN62       -3.3462    6.4841   -0.1542 H         1 ACP         0.4754
     47 H2         -1.5932    4.4937    3.7066 H         1 ACP         0.0886
     48 H48        -2.8098    5.8270    2.1160 H         1 ACP         0.4707
@<TRIPOS>BOND
     1    1    2 2
     2    1    3 1
     3    1    4 1
     4    1    8 1
     5    3   32 1
     6    4   33 1
     7    5    6 2
     8    5    7 1
     9    5    8 1
    10    5   12 1
    11    8   34 1
    12    8   35 1
    13    9   10 2
    14    9   11 1
    15    9   12 1
    16    9   13 1
    17   13   14 1
    18   14   15 1
    19   14   36 1
    20   14   37 1
    21   15   16 1
    22   15   17 1
    23   15   38 1
    24   16   21 1
    25   17   18 1
    26   17   19 1
    27   17   39 1
    28   18   40 1
    29   19   20 1
    30   19   21 1
    31   19   41 1
    32   20   42 1
    33   21   22 1
    34   21   43 1
    35   22   23 ar
    36   22   31 ar
    37   23   24 ar
    38   23   44 1
    39   24   25 ar
    40   25   26 ar
    41   25   31 ar
    42   26   27 1
    43   26   28 ar
    44   27   45 1
    45   27   46 1
    46   28   29 ar
    47   28   48 1
    48   29   30 ar
    49   29   47 1
    50   30   31 ar
@<TRIPOS>SUBSTRUCTURE
     1 ACP         1 GROUP 0 A     ****
@<TRIPOS>MOLECULE
[[5-(6-amino-1,8-dihydropurine-6,8-diylium-7-id-9-yl)-3,4-dihydroxy-tetrahydrofuran-2-yl]methoxy-oxido-phosphoryl]oxy-(phosphonomethyl)phosphinate
   48    50     1     0     0
SMALL
USER_CHARGES

@<TRIPOS>ATOM
      1 PG          5.8044    2.6873   -3.8456 P.3       1 ACP         1.6558
      2 O1G         6.9030    3.4929   -3.2200 O.2       1 ACP        -0.9020
      3 O2G         4.9929    3.4242   -5.0324 O.3       1 ACP        -0.8036
      4 O3G         4.6412    2.2002   -2.8360 O.3       1 ACP        -0.8036
      5 PB          5.1998   -0.0285   -5.4545 P.3       1 ACP         1.4945
      6 O1B         6.0296   -1.1843   -5.9638 O.co2     1 ACP        -0.8481
      7 O2B         4.3087    0.7871   -6.3624 O.co2     1 ACP        -0.8481
      8 C3B         6.3543    1.1469   -4.6141 C.3       1 ACP        -0.6636
      9 PA          3.2507   -1.6777   -3.9421 P.3       1 ACP         1.6023
     10 O1A         3.9275   -3.0146   -4.1544 O.co2     1 ACP        -0.8673
     11 O2A         2.0156   -1.3049   -4.7330 O.co2     1 ACP        -0.8673
     12 O3A         4.3633   -0.4977   -4.1357 O.3       1 ACP        -0.8150
     13 O5'         2.9203   -1.4822   -2.3523 O.3       1 ACP        -0.5522
     14 C5'         2.2816   -0.2918   -1.9206 C.3       1 ACP         0.2181
     15 C4'         2.7248    0.0226   -0.4980 C.3       1 ACP         0.0915
     16 O4'         2.4697    1.4219   -0.2462 O.3       1 ACP        -0.3675
     17 C3'         1.9404   -0.7419    0.5596 C.3       1 ACP         0.0748
     18 O3'         2.7418   -0.8086    1.7389 O.3       1 ACP        -0.5646
     19 C2'         0.7477    0.1630    0.7858 C.3       1 ACP         0.0804
     20 O2'         0.1373   -0.0577    2.0407 O.3       1 ACP        -0.5882
     21 C1'         1.3733    1.5427    0.6747 C.3       1 ACP         0.3809
     22 N9          0.4520    2.5240    0.1767 N.pl3     1 ACP        -0.4412
     23 C8          0.1798    2.8712   -1.2933 C.ar      1 ACP         0.1936
     24 N7         -0.7494    3.8400   -1.3610 N.2       1 ACP        -0.2746
     25 C5         -1.0173    4.0603   -0.0358 C.ar      1 ACP        -0.1386
     26 C6         -2.0105    5.0717    0.4241 C.ar      1 ACP         0.4778
     27 N6         -2.6723    5.7982   -0.4628 N.pl3     1 ACP        -0.8290
     28 N1         -2.1445    5.1522    1.7502 N.pl3     1 ACP        -0.6985
     29 C2         -1.3755    4.3143    2.6426 C.ar      1 ACP         0.6179
     30 N3         -0.5075    3.4292    2.2616 N.ar      1 ACP        -0.5105
     31 C4         -0.3667    3.3425    0.9070 C.ar      1 ACP         0.2753
     32 HOG2        4.5183    4.2598   -4.8357 H         1 ACP         0.4487
     33 HOG3        4.1206    2.8746   -2.3501 H         1 ACP         0.4487
     34 H3B1        7.1110    1.4030   -5.3642 H         1 ACP         0.1088
     35 H3B2        6.8603    0.5642   -3.8359 H         1 ACP         0.1088
     36 H5'1        2.5581    0.5234   -2.5967 H         1 ACP         0.0327
     37 H5'2        1.1975   -0.4371   -1.9608 H         1 ACP         0.0327
     38 H4'         3.8046   -0.1390   -0.4011 H         1 ACP         0.1275
     39 H3'         1.6787   -1.7627    0.2719 H         1 ACP         0.0637
     40 HO3'        2.2231   -1.2979    2.3952 H         1 ACP         0.4127
     41 H2'         0.0002   -0.0084   -0.0014 H         1 ACP         0.0692
     42 HO2'       -0.6132    0.5577    2.1063 H         1 ACP         0.4431
     43 H1'         1.7718    1.9211    1.6015 H         1 ACP         0.1199
     44 H8          0.6089    2.4651   -2.2147 H         1 ACP         0.2941
     45 HN61       -2.5055    5.6680   -1.4503 H         1 ACP         0.4754
     46 HN62       -3.3462    6.4841   -0.1542 H         1 ACP         0.4754
     47 H2         -1.5932    4.4937    3.7066 H         1 ACP         0.0886
     48 H48        -2.8098    5.8270    2.1160 H         1 ACP         0.4707
@<TRIPOS>BOND
     1    1    2 2
     2    1    3 1
     3    1    4 1
     4    1    8 1
     5    3   32 1
     6    4   33 1
     7    5    6 2
     8    5    7 1
     9    5    8 1
    10    5   12 1
    11    8   34 1
    12    8   35 1
    13    9   10 2
    14    9   11 1
    15    9   12 1
    16    9   13 1
    17   13   14 1
    18   14   15 1
    19   14   36 1
    20   14   37 1
    21   15   16 1
    22   15   17 1
    23   15   38 1
    24   16   21 1
    25   17   18 1
    26   17   19 1
    27   17   39 1
    28   18   40 1
    29   19   20 1
    30   19   21 1
    31   19   41 1
    32   20   42 1
    33   21   22 1
    34   21   43 1
    35   22   23 ar
    36   22   31 ar
    37   23   24 ar
    38   23   44 1
    39   24   25 ar
    40   25   26 ar
    41   25   31 ar
    42   26   27 1
    43   26   28 ar
    44   27   45 1
    45   27   46 1
    46   28   29 ar
    47   28   48 1
    48   29   30 ar
    49   29   47 1
    50   30   31 ar
@<TRIPOS>SUBSTRUCTURE
     1 ACP         1 GROUP 0 A     ****
@<TRIPOS>MOLECULE
[[5-(6-amino-1,8-dihydropurine-6,8-diylium-7-id-9-yl)-3,4-dihydroxy-tetrahydrofuran-2-yl]methoxy-oxido-phosphoryl]oxy-(phosphonomethyl)phosphinate
   48    50     1     0     0
SMALL
USER_CHARGES

@<TRIPOS>ATOM
      1 PG         -0.3002   -2.0507   -6.0309 P.3       1 ACP         1.6558
      2 O1G         0.1574   -2.3424   -7.4283 O.2       1 ACP        -0.9020
      3 O2G         0.7373   -2.4587   -4.8615 O.3       1 ACP        -0.8036
      4 O3G        -1.6753   -2.7732   -5.5871 O.3       1 ACP        -0.8036
      5 PB          0.6609    1.0118   -5.8669 P.3       1 ACP         1.4945
      6 O1B         0.0066    2.3267   -5.5111 O.co2     1 ACP        -0.8481
      7 O2B         1.3645    0.7912   -7.1859 O.co2     1 ACP        -0.8481
      8 C3B        -0.6283   -0.3042   -5.7029 C.3       1 ACP        -0.6636
      9 PA          2.9201    1.2533   -3.9581 P.3       1 ACP         1.6023
     10 O1A         2.4599    2.5248   -3.2784 O.co2     1 ACP        -0.8673
     11 O2A         4.0401    1.2850   -4.9752 O.co2     1 ACP        -0.8673
     12 O3A         1.6231    0.5326   -4.6407 O.3       1 ACP        -0.8150
     13 O5'         3.2885    0.1337   -2.8242 O.3       1 ACP        -0.5522
     14 C5'         2.2816   -0.2918   -1.9206 C.3       1 ACP         0.2181
     15 C4'         2.7248    0.0226   -0.4980 C.3       1 ACP         0.0915
     16 O4'         2.4697    1.4219   -0.2462 O.3       1 ACP        -0.3675
     17 C3'         1.9404   -0.7419    0.5596 C.3       1 ACP         0.0748
     18 O3'         2.7418   -0.8086    1.7389 O.3       1 ACP        -0.5646
     19 C2'         0.7477    0.1630    0.7858 C.3       1 ACP         0.0804
     20 O2'         0.1373   -0.0577    2.0407 O.3       1 ACP        -0.5882
     21 C1'         1.3733    1.5427    0.6747 C.3       1 ACP         0.3809
     22 N9          0.4520    2.5240    0.1767 N.pl3     1 ACP        -0.4412
     23 C8         -0.3054    2.4845   -1.1576 C.ar      1 ACP         0.1936
     24 N7         -1.0755    3.5806   -1.2691 N.2       1 ACP        -0.2746
     25 C5         -0.8043    4.2306   -0.0942 C.ar      1 ACP        -0.1386
     26 C6         -1.4324    5.5335    0.2646 C.ar      1 ACP         0.4778
     27 N6         -2.2885    6.1054   -0.5675 N.pl3     1 ACP        -0.8290
     28 N1         -1.0537    6.0229    1.4478 N.pl3     1 ACP        -0.6985
     29 C2         -0.1096    5.3242    2.2908 C.ar      1 ACP         0.6179
     30 N3          0.4468    4.1904    1.9960 N.ar      1 ACP        -0.5105
     31 C4          0.0631    3.6855    0.7877 C.ar      1 ACP         0.2753
     32 HOG2        1.0089   -3.3970   -4.7734 H         1 ACP         0.4487
     33 HOG3       -1.7213   -3.7529   -5.5948 H         1 ACP         0.4487
     34 H3B1       -1.4508    0.0066   -6.3570 H         1 ACP         0.1088
     35 H3B2       -0.9962   -0.2359   -4.6728 H         1 ACP         0.1088
     36 H5'1        1.3501    0.2325   -2.1561 H         1 ACP         0.0327
     37 H5'2        2.1268   -1.3683   -2.0445 H         1 ACP         0.0327
     38 H4'         3.8046   -0.1390   -0.4011 H         1 ACP         0.1275
     39 H3'         1.6787   -1.7627    0.2719 H         1 ACP         0.0637
     40 HO3'        3.5553   -1.2733    1.4913 H         1 ACP         0.4127
     41 H2'         0.0002   -0.0084   -0.0014 H         1 ACP         0.0692
     42 HO2'       -0.1554   -0.9852    2.0577 H         1 ACP         0.4431
     43 H1'         1.7718    1.9211    1.6015 H         1 ACP         0.1199
     44 H8         -0.2991    1.7413   -1.9611 H         1 ACP         0.2941
     45 HN61       -2.5167    5.6603   -1.4447 H         1 ACP         0.4754
     46 HN62       -2.7159    6.9882   -0.3270 H         1 ACP         0.4754
     47 H2          0.1059    5.8491    3.2340 H         1 ACP         0.0886
     48 H48        -1.4532    6.9099    1.7401 H         1 ACP         0.4707
@<TRIPOS>BOND
     1    1    2 2
     2    1    3 1
     3    1    4 1
     4    1    8 1
     5    3   32 1
     6    4   33 1
     7    5    6 2
     8    5    7 1
     9    5    8 1
    10    5   12 1
    11    8   34 1
    12    8   35 1
    13    9   10 2
    14    9   11 1
    15    9   12 1
    16    9   13 1
    17   13   14 1
    18   14   15 1
    19   14   36 1
    20   14   37 1
    21   15   16 1
    22   15   17 1
    23   15   38 1
    24   16   21 1
    25   17   18 1
    26   17   19 1
    27   17   39 1
    28   18   40 1
    29   19   20 1
    30   19   21 1
    31   19   41 1
    32   20   42 1
    33   21   22 1
    34   21   43 1
    35   22   23 ar
    36   22   31 ar
    37   23   24 ar
    38   23   44 1
    39   24   25 ar
    40   25   26 ar
    41   25   31 ar
    42   26   27 1
    43   26   28 ar
    44   27   45 1
    45   27   46 1
    46   28   29 ar
    47   28   48 1
    48   29   30 ar
    49   29   47 1
    50   30   31 ar
@<TRIPOS>SUBSTRUCTURE
     1 ACP         1 GROUP 0 A     ****
@<TRIPOS>MOLECULE
[[5-(6-amino-1,8-dihydropurine-6,8-diylium-7-id-9-yl)-3,4-dihydroxy-tetrahydrofuran-2-yl]methoxy-oxido-phosphoryl]oxy-(phosphonomethyl)phosphinate
   48    50     1     0     0
SMALL
USER_CHARGES

@<TRIPOS>ATOM
      1 PG          2.2443   -4.7289   -3.4919 P.3       1 ACP         1.6558
      2 O1G         2.2811   -3.7700   -2.3401 O.2       1 ACP        -0.9020
      3 O2G         0.8114   -4.8813   -4.2226 O.3       1 ACP        -0.8036
      4 O3G         2.6544   -6.2512   -3.1395 O.3       1 ACP        -0.8036
      5 PB          3.2448   -2.7178   -5.7907 P.3       1 ACP         1.4945
      6 O1B         1.8725   -2.6686   -6.4217 O.co2     1 ACP        -0.8481
      7 O2B         4.5120   -2.5833   -6.6030 O.co2     1 ACP        -0.8481
      8 C3B         3.3590   -4.3061   -4.8499 C.3       1 ACP        -0.6636
      9 PA          3.0640   -0.0874   -4.4291 P.3       1 ACP         1.6023
     10 O1A         1.6224    0.2104   -4.7809 O.co2     1 ACP        -0.8673
     11 O2A         4.1945    0.5982   -5.1653 O.co2     1 ACP        -0.8673
     12 O3A         3.2953   -1.7018   -4.5162 O.3       1 ACP        -0.8150
     13 O5'         3.2885    0.1337   -2.8242 O.3       1 ACP        -0.5522
     14 C5'         2.2816   -0.2918   -1.9206 C.3       1 ACP         0.2181
     15 C4'         2.7248    0.0226   -0.4980 C.3       1 ACP         0.0915
     16 O4'         2.4697    1.4219   -0.2462 O.3       1 ACP        -0.3675
     17 C3'         1.9404   -0.7419    0.5596 C.3       1 ACP         0.0748
     18 O3'         2.7418   -0.8086    1.7389 O.3       1 ACP        -0.5646
     19 C2'         0.7477    0.1630    0.7858 C.3       1 ACP         0.0804
     20 O2'         0.1373   -0.0577    2.0407 O.3       1 ACP        -0.5882
     21 C1'         1.3733    1.5427    0.6747 C.3       1 ACP         0.3809
     22 N9          0.4520    2.5240    0.1767 N.pl3     1 ACP        -0.4412
     23 C8          0.1798    2.8712   -1.2933 C.ar      1 ACP         0.1936
     24 N7         -0.7494    3.8400   -1.3610 N.2       1 ACP        -0.2746
     25 C5         -1.0173    4.0603   -0.0358 C.ar      1 ACP        -0.1386
     26 C6         -2.0105    5.0717    0.4241 C.ar      1 ACP         0.4778
     27 N6         -2.6723    5.7982   -0.4628 N.pl3     1 ACP        -0.8290
     28 N1         -2.1445    5.1522    1.7502 N.pl3     1 ACP        -0.6985
     29 C2         -1.3755    4.3143    2.6426 C.ar      1 ACP         0.6179
     30 N3         -0.5075    3.4292    2.2616 N.ar      1 ACP        -0.5105
     31 C4         -0.3667    3.3425    0.9070 C.ar      1 ACP         0.2753
     32 HOG2        0.0423   -5.1931   -3.6997 H         1 ACP         0.4487
     33 HOG3        2.1280   -6.7431   -2.4739 H         1 ACP         0.4487
     34 H3B1        4.3831   -4.3452   -4.4619 H         1 ACP         0.1088
     35 H3B2        3.2698   -5.1032   -5.5968 H         1 ACP         0.1088
     36 H5'1        1.3501    0.2325   -2.1561 H         1 ACP         0.0327
     37 H5'2        2.1268   -1.3683   -2.0445 H         1 ACP         0.0327
     38 H4'         3.8046   -0.1390   -0.4011 H         1 ACP         0.1275
     39 H3'         1.6787   -1.7627    0.2719 H         1 ACP         0.0637
     40 HO3'        3.5553   -1.2733    1.4913 H         1 ACP         0.4127
     41 H2'         0.0002   -0.0084   -0.0014 H         1 ACP         0.0692
     42 HO2'       -0.6132    0.5577    2.1063 H         1 ACP         0.4431
     43 H1'         1.7718    1.9211    1.6015 H         1 ACP         0.1199
     44 H8          0.6089    2.4651   -2.2147 H         1 ACP         0.2941
     45 HN61       -2.5055    5.6680   -1.4503 H         1 ACP         0.4754
     46 HN62       -3.3462    6.4841   -0.1542 H         1 ACP         0.4754
     47 H2         -1.5932    4.4937    3.7066 H         1 ACP         0.0886
     48 H48        -2.8098    5.8270    2.1160 H         1 ACP         0.4707
@<TRIPOS>BOND
     1    1    2 2
     2    1    3 1
     3    1    4 1
     4    1    8 1
     5    3   32 1
     6    4   33 1
     7    5    6 2
     8    5    7 1
     9    5    8 1
    10    5   12 1
    11    8   34 1
    12    8   35 1
    13    9   10 2
    14    9   11 1
    15    9   12 1
    16    9   13 1
    17   13   14 1
    18   14   15 1
    19   14   36 1
    20   14   37 1
    21   15   16 1
    22   15   17 1
    23   15   38 1
    24   16   21 1
    25   17   18 1
    26   17   19 1
    27   17   39 1
    28   18   40 1
    29   19   20 1
    30   19   21 1
    31   19   41 1
    32   20   42 1
    33   21   22 1
    34   21   43 1
    35   22   23 ar
    36   22   31 ar
    37   23   24 ar
    38   23   44 1
    39   24   25 ar
    40   25   26 ar
    41   25   31 ar
    42   26   27 1
    43   26   28 ar
    44   27   45 1
    45   27   46 1
    46   28   29 ar
    47   28   48 1
    48   29   30 ar
    49   29   47 1
    50   30   31 ar
@<TRIPOS>SUBSTRUCTURE
     1 ACP         1 GROUP 0 A     ****
@<TRIPOS>MOLECULE
[[5-(6-amino-1,8-dihydropurine-6,8-diylium-7-id-9-yl)-3,4-dihydroxy-tetrahydrofuran-2-yl]methoxy-oxido-phosphoryl]oxy-(phosphonomethyl)phosphinate
   48    50     1     0     0
SMALL
USER_CHARGES

@<TRIPOS>ATOM
      1 PG          0.4125    0.6814   -6.0665 P.3       1 ACP         1.6558
      2 O1G        -0.7382    0.9389   -5.1408 O.2       1 ACP        -0.9020
      3 O2G         1.8511    1.2018   -5.5469 O.3       1 ACP        -0.8036
      4 O3G         0.2797    1.3384   -7.5364 O.3       1 ACP        -0.8036
      5 PB          1.1063   -2.3076   -5.1103 P.3       1 ACP         1.4945
      6 O1B         1.2814   -3.6427   -5.7960 O.co2     1 ACP        -0.8481
      7 O2B         0.1224   -2.1027   -3.9817 O.co2     1 ACP        -0.8481
      8 C3B         0.7074   -1.0657   -6.4216 C.3       1 ACP        -0.6636
      9 PA          3.5289   -2.0703   -3.4131 P.3       1 ACP         1.6023
     10 O1A         4.7102   -1.1244   -3.4296 O.co2     1 ACP        -0.8673
     11 O2A         3.7415   -3.5681   -3.3745 O.co2     1 ACP        -0.8673
     12 O3A         2.5658   -1.7182   -4.6843 O.3       1 ACP        -0.8150
     13 O5'         2.5238   -1.6632   -2.1888 O.3       1 ACP        -0.5522
     14 C5'         2.2816   -0.2918   -1.9206 C.3       1 ACP         0.2181
     15 C4'         2.7248    0.0226   -0.4980 C.3       1 ACP         0.0915
     16 O4'         2.4697    1.4219   -0.2462 O.3       1 ACP        -0.3675
     17 C3'         1.9404   -0.7419    0.5596 C.3       1 ACP         0.0748
     18 O3'         2.7418   -0.8086    1.7389 O.3       1 ACP        -0.5646
     19 C2'         0.7477    0.1630    0.7858 C.3       1 ACP         0.0804
     20 O2'         0.1373   -0.0577    2.0407 O.3       1 ACP        -0.5882
     21 C1'         1.3733    1.5427    0.6747 C.3       1 ACP         0.3809
     22 N9          0.4520    2.5240    0.1767 N.pl3     1 ACP        -0.4412
     23 C8          0.1798    2.8712   -1.2933 C.ar      1 ACP         0.1936
     24 N7         -0.7494    3.8400   -1.3610 N.2       1 ACP        -0.2746
     25 C5         -1.0173    4.0603   -0.0358 C.ar      1 ACP        -0.1386
     26 C6         -2.0105    5.0717    0.4241 C.ar      1 ACP         0.4778
     27 N6         -2.6723    5.7982   -0.4628 N.pl3     1 ACP        -0.8290
     28 N1         -2.1445    5.1522    1.7502 N.pl3     1 ACP        -0.6985
     29 C2         -1.3755    4.3143    2.6426 C.ar      1 ACP         0.6179
     30 N3         -0.5075    3.4292    2.2616 N.ar      1 ACP        -0.5105
     31 C4         -0.3667    3.3425    0.9070 C.ar      1 ACP         0.2753
     32 HOG2        1.9729    2.1577   -5.3644 H         1 ACP         0.4487
     33 HOG3        0.1944    2.3122   -7.6157 H         1 ACP         0.4487
     34 H3B1       -0.1802   -1.4537   -6.9340 H         1 ACP         0.1088
     35 H3B2        1.5353   -1.1111   -7.1382 H         1 ACP         0.1088
     36 H5'1        2.8430    0.3138   -2.6391 H         1 ACP         0.0327
     37 H5'2        1.2126   -0.0907   -2.0421 H         1 ACP         0.0327
     38 H4'         3.8046   -0.1390   -0.4011 H         1 ACP         0.1275
     39 H3'         1.6787   -1.7627    0.2719 H         1 ACP         0.0637
     40 HO3'        3.5553   -1.2733    1.4913 H         1 ACP         0.4127
     41 H2'         0.0002   -0.0084   -0.0014 H         1 ACP         0.0692
     42 HO2'       -0.1554   -0.9852    2.0577 H         1 ACP         0.4431
     43 H1'         1.7718    1.9211    1.6015 H         1 ACP         0.1199
     44 H8          0.6089    2.4651   -2.2147 H         1 ACP         0.2941
     45 HN61       -2.5055    5.6680   -1.4503 H         1 ACP         0.4754
     46 HN62       -3.3462    6.4841   -0.1542 H         1 ACP         0.4754
     47 H2         -1.5932    4.4937    3.7066 H         1 ACP         0.0886
     48 H48        -2.8098    5.8270    2.1160 H         1 ACP         0.4707
@<TRIPOS>BOND
     1    1    2 2
     2    1    3 1
     3    1    4 1
     4    1    8 1
     5    3   32 1
     6    4   33 1
     7    5    6 2
     8    5    7 1
     9    5    8 1
    10    5   12 1
    11    8   34 1
    12    8   35 1
    13    9   10 2
    14    9   11 1
    15    9   12 1
    16    9   13 1
    17   13   14 1
    18   14   15 1
    19   14   36 1
    20   14   37 1
    21   15   16 1
    22   15   17 1
    23   15   38 1
    24   16   21 1
    25   17   18 1
    26   17   19 1
    27   17   39 1
    28   18   40 1
    29   19   20 1
    30   19   21 1
    31   19   41 1
    32   20   42 1
    33   21   22 1
    34   21   43 1
    35   22   23 ar
    36   22   31 ar
    37   23   24 ar
    38   23   44 1
    39   24   25 ar
    40   25   26 ar
    41   25   31 ar
    42   26   27 1
    43   26   28 ar
    44   27   45 1
    45   27   46 1
    46   28   29 ar
    47   28   48 1
    48   29   30 ar
    49   29   47 1
    50   30   31 ar
@<TRIPOS>SUBSTRUCTURE
     1 ACP         1 GROUP 0 A     ****
@<TRIPOS>MOLECULE
[[5-(6-amino-1,8-dihydropurine-6,8-diylium-7-id-9-yl)-3,4-dihydroxy-tetrahydrofuran-2-yl]methoxy-oxido-phosphoryl]oxy-(phosphonomethyl)phosphinate
   48    50     1     0     0
SMALL
USER_CHARGES

@<TRIPOS>ATOM
      1 PG          6.7762    1.4108   -2.1238 P.3       1 ACP         1.6558
      2 O1G         5.3345    1.6650   -1.8009 O.2       1 ACP        -0.9020
      3 O2G         7.8399    1.9987   -1.0593 O.3       1 ACP        -0.8036
      4 O3G         7.2851    2.0058   -3.5368 O.3       1 ACP        -0.8036
      5 PB          6.4417   -1.5036   -3.4369 P.3       1 ACP         1.4945
      6 O1B         7.0701   -2.8604   -3.2179 O.co2     1 ACP        -0.8481
      7 O2B         6.4421   -0.8220   -4.7856 O.co2     1 ACP        -0.8481
      8 C3B         7.2194   -0.3378   -2.2298 C.3       1 ACP        -0.6636
      9 PA          3.5289   -2.0703   -3.4131 P.3       1 ACP         1.6023
     10 O1A         3.6276   -3.5779   -3.5025 O.co2     1 ACP        -0.8673
     11 O2A         3.1544   -1.2491   -4.6277 O.co2     1 ACP        -0.8673
     12 O3A         4.9348   -1.4941   -2.8138 O.3       1 ACP        -0.8150
     13 O5'         2.5238   -1.6632   -2.1888 O.3       1 ACP        -0.5522
     14 C5'         2.2816   -0.2918   -1.9206 C.3       1 ACP         0.2181
     15 C4'         2.7248    0.0226   -0.4980 C.3       1 ACP         0.0915
     16 O4'         2.4697    1.4219   -0.2462 O.3       1 ACP        -0.3675
     17 C3'         1.9404   -0.7419    0.5596 C.3       1 ACP         0.0748
     18 O3'         2.7418   -0.8086    1.7389 O.3       1 ACP        -0.5646
     19 C2'         0.7477    0.1630    0.7858 C.3       1 ACP         0.0804
     20 O2'         0.1373   -0.0577    2.0407 O.3       1 ACP        -0.5882
     21 C1'         1.3733    1.5427    0.6747 C.3       1 ACP         0.3809
     22 N9          0.4520    2.5240    0.1767 N.pl3     1 ACP        -0.4412
     23 C8          0.1798    2.8712   -1.2933 C.ar      1 ACP         0.1936
     24 N7         -0.7494    3.8400   -1.3610 N.2       1 ACP        -0.2746
     25 C5         -1.0173    4.0603   -0.0358 C.ar      1 ACP        -0.1386
     26 C6         -2.0105    5.0717    0.4241 C.ar      1 ACP         0.4778
     27 N6         -2.6723    5.7982   -0.4628 N.pl3     1 ACP        -0.8290
     28 N1         -2.1445    5.1522    1.7502 N.pl3     1 ACP        -0.6985
     29 C2         -1.3755    4.3143    2.6426 C.ar      1 ACP         0.6179
     30 N3         -0.5075    3.4292    2.2616 N.ar      1 ACP        -0.5105
     31 C4         -0.3667    3.3425    0.9070 C.ar      1 ACP         0.2753
     32 HOG2        7.8575    2.9646   -0.8894 H         1 ACP         0.4487
     33 HOG3        7.2295    2.9725   -3.6930 H         1 ACP         0.4487
     34 H3B1        8.2975   -0.3952   -2.4182 H         1 ACP         0.1088
     35 H3B2        7.0448   -0.7726   -1.2391 H         1 ACP         0.1088
     36 H5'1        2.8430    0.3138   -2.6391 H         1 ACP         0.0327
     37 H5'2        1.2126   -0.0907   -2.0421 H         1 ACP         0.0327
     38 H4'         3.8046   -0.1390   -0.4011 H         1 ACP         0.1275
     39 H3'         1.6787   -1.7627    0.2719 H         1 ACP         0.0637
     40 HO3'        3.5553   -1.2733    1.4913 H         1 ACP         0.4127
     41 H2'         0.0002   -0.0084   -0.0014 H         1 ACP         0.0692
     42 HO2'       -0.1554   -0.9852    2.0577 H         1 ACP         0.4431
     43 H1'         1.7718    1.9211    1.6015 H         1 ACP         0.1199
     44 H8          0.6089    2.4651   -2.2147 H         1 ACP         0.2941
     45 HN61       -2.5055    5.6680   -1.4503 H         1 ACP         0.4754
     46 HN62       -3.3462    6.4841   -0.1542 H         1 ACP         0.4754
     47 H2         -1.5932    4.4937    3.7066 H         1 ACP         0.0886
     48 H48        -2.8098    5.8270    2.1160 H         1 ACP         0.4707
@<TRIPOS>BOND
     1    1    2 2
     2    1    3 1
     3    1    4 1
     4    1    8 1
     5    3   32 1
     6    4   33 1
     7    5    6 2
     8    5    7 1
     9    5    8 1
    10    5   12 1
    11    8   34 1
    12    8   35 1
    13    9   10 2
    14    9   11 1
    15    9   12 1
    16    9   13 1
    17   13   14 1
    18   14   15 1
    19   14   36 1
    20   14   37 1
    21   15   16 1
    22   15   17 1
    23   15   38 1
    24   16   21 1
    25   17   18 1
    26   17   19 1
    27   17   39 1
    28   18   40 1
    29   19   20 1
    30   19   21 1
    31   19   41 1
    32   20   42 1
    33   21   22 1
    34   21   43 1
    35   22   23 ar
    36   22   31 ar
    37   23   24 ar
    38   23   44 1
    39   24   25 ar
    40   25   26 ar
    41   25   31 ar
    42   26   27 1
    43   26   28 ar
    44   27   45 1
    45   27   46 1
    46   28   29 ar
    47   28   48 1
    48   29   30 ar
    49   29   47 1
    50   30   31 ar
@<TRIPOS>SUBSTRUCTURE
     1 ACP         1 GROUP 0 A     ****
@<TRIPOS>MOLECULE
[[5-(6-amino-1,8-dihydropurine-6,8-diylium-7-id-9-yl)-3,4-dihydroxy-tetrahydrofuran-2-yl]methoxy-oxido-phosphoryl]oxy-(phosphonomethyl)phosphinate
   48    50     1     0     0
SMALL
USER_CHARGES

@<TRIPOS>ATOM
      1 PG         -1.9430   -2.8316   -2.2237 P.3       1 ACP         1.6558
      2 O1G        -0.9860   -2.1399   -1.3001 O.2       1 ACP        -0.9020
      3 O2G        -2.8369   -1.8581   -3.1530 O.3       1 ACP        -0.8036
      4 O3G        -3.0363   -3.7796   -1.5056 O.3       1 ACP        -0.8036
      5 PB          0.0815   -3.3628   -4.6628 P.3       1 ACP         1.4945
      6 O1B        -0.5984   -2.3252   -5.5256 O.co2     1 ACP        -0.8481
      7 O2B         0.7387   -4.5924   -5.2457 O.co2     1 ACP        -0.8481
      8 C3B        -1.1588   -3.9386   -3.4175 C.3       1 ACP        -0.6636
      9 PA          2.6171   -2.0488   -3.8563 P.3       1 ACP         1.6023
     10 O1A         2.5471   -0.8889   -4.8260 O.co2     1 ACP        -0.8673
     11 O2A         3.5415   -3.2178   -4.1184 O.co2     1 ACP        -0.8673
     12 O3A         1.1061   -2.6262   -3.6299 O.3       1 ACP        -0.8150
     13 O5'         2.9203   -1.4822   -2.3523 O.3       1 ACP        -0.5522
     14 C5'         2.2816   -0.2918   -1.9206 C.3       1 ACP         0.2181
     15 C4'         2.7248    0.0226   -0.4980 C.3       1 ACP         0.0915
     16 O4'         2.4697    1.4219   -0.2462 O.3       1 ACP        -0.3675
     17 C3'         1.9404   -0.7419    0.5596 C.3       1 ACP         0.0748
     18 O3'         2.7418   -0.8086    1.7389 O.3       1 ACP        -0.5646
     19 C2'         0.7477    0.1630    0.7858 C.3       1 ACP         0.0804
     20 O2'         0.1373   -0.0577    2.0407 O.3       1 ACP        -0.5882
     21 C1'         1.3733    1.5427    0.6747 C.3       1 ACP         0.3809
     22 N9          0.4520    2.5240    0.1767 N.pl3     1 ACP        -0.4412
     23 C8         -0.3054    2.4845   -1.1576 C.ar      1 ACP         0.1936
     24 N7         -1.0755    3.5806   -1.2691 N.2       1 ACP        -0.2746
     25 C5         -0.8043    4.2306   -0.0942 C.ar      1 ACP        -0.1386
     26 C6         -1.4324    5.5335    0.2646 C.ar      1 ACP         0.4778
     27 N6         -2.2885    6.1054   -0.5675 N.pl3     1 ACP        -0.8290
     28 N1         -1.0537    6.0229    1.4478 N.pl3     1 ACP        -0.6985
     29 C2         -0.1096    5.3242    2.2908 C.ar      1 ACP         0.6179
     30 N3          0.4468    4.1904    1.9960 N.ar      1 ACP        -0.5105
     31 C4          0.0631    3.6855    0.7877 C.ar      1 ACP         0.2753
     32 HOG2       -3.4332   -1.2080   -2.7243 H         1 ACP         0.4487
     33 HOG3       -3.6586   -3.3824   -0.8599 H         1 ACP         0.4487
     34 H3B1       -0.6610   -4.7350   -2.8529 H         1 ACP         0.1088
     35 H3B2       -1.9636   -4.4102   -3.9929 H         1 ACP         0.1088
     36 H5'1        2.5581    0.5234   -2.5967 H         1 ACP         0.0327
     37 H5'2        1.1975   -0.4371   -1.9608 H         1 ACP         0.0327
     38 H4'         3.8046   -0.1390   -0.4011 H         1 ACP         0.1275
     39 H3'         1.6787   -1.7627    0.2719 H         1 ACP         0.0637
     40 HO3'        2.2231   -1.2979    2.3952 H         1 ACP         0.4127
     41 H2'         0.0002   -0.0084   -0.0014 H         1 ACP         0.0692
     42 HO2'       -0.6132    0.5577    2.1063 H         1 ACP         0.4431
     43 H1'         1.7718    1.9211    1.6015 H         1 ACP         0.1199
     44 H8         -0.2991    1.7413   -1.9611 H         1 ACP         0.2941
     45 HN61       -2.5167    5.6603   -1.4447 H         1 ACP         0.4754
     46 HN62       -2.7159    6.9882   -0.3270 H         1 ACP         0.4754
     47 H2          0.1059    5.8491    3.2340 H         1 ACP         0.0886
     48 H48        -1.4532    6.9099    1.7401 H         1 ACP         0.4707
@<TRIPOS>BOND
     1    1    2 2
     2    1    3 1
     3    1    4 1
     4    1    8 1
     5    3   32 1
     6    4   33 1
     7    5    6 2
     8    5    7 1
     9    5    8 1
    10    5   12 1
    11    8   34 1
    12    8   35 1
    13    9   10 2
    14    9   11 1
    15    9   12 1
    16    9   13 1
    17   13   14 1
    18   14   15 1
    19   14   36 1
    20   14   37 1
    21   15   16 1
    22   15   17 1
    23   15   38 1
    24   16   21 1
    25   17   18 1
    26   17   19 1
    27   17   39 1
    28   18   40 1
    29   19   20 1
    30   19   21 1
    31   19   41 1
    32   20   42 1
    33   21   22 1
    34   21   43 1
    35   22   23 ar
    36   22   31 ar
    37   23   24 ar
    38   23   44 1
    39   24   25 ar
    40   25   26 ar
    41   25   31 ar
    42   26   27 1
    43   26   28 ar
    44   27   45 1
    45   27   46 1
    46   28   29 ar
    47   28   48 1
    48   29   30 ar
    49   29   47 1
    50   30   31 ar
@<TRIPOS>SUBSTRUCTURE
     1 ACP         1 GROUP 0 A     ****
@<TRIPOS>MOLECULE
[[5-(6-amino-1,8-dihydropurine-6,8-diylium-7-id-9-yl)-3,4-dihydroxy-tetrahydrofuran-2-yl]methoxy-oxido-phosphoryl]oxy-(phosphonomethyl)phosphinate
   48    50     1     0     0
SMALL
USER_CHARGES

@<TRIPOS>ATOM
      1 PG          5.4832   -5.0281   -4.4930 P.3       1 ACP         1.6558
      2 O1G         5.5399   -6.5175   -4.3324 O.2       1 ACP        -0.9020
      3 O2G         4.1242   -4.4522   -5.1500 O.3       1 ACP        -0.8036
      4 O3G         6.6491   -4.3850   -5.4078 O.3       1 ACP        -0.8036
      5 PB          5.5769   -2.2581   -2.8656 P.3       1 ACP         1.4945
      6 O1B         6.7347   -1.7480   -3.6920 O.co2     1 ACP        -0.8481
      7 O2B         5.3884   -1.8738   -1.4164 O.co2     1 ACP        -0.8481
      8 C3B         5.6184   -4.1055   -2.9451 C.3       1 ACP        -0.6636
      9 PA          3.4810   -0.6670   -4.2373 P.3       1 ACP         1.6023
     10 O1A         2.1230   -1.0218   -4.8033 O.co2     1 ACP        -0.8673
     11 O2A         4.4926    0.0849   -5.0747 O.co2     1 ACP        -0.8673
     12 O3A         4.1836   -2.0330   -3.6824 O.3       1 ACP        -0.8150
     13 O5'         3.2885    0.1337   -2.8242 O.3       1 ACP        -0.5522
     14 C5'         2.2816   -0.2918   -1.9206 C.3       1 ACP         0.2181
     15 C4'         2.7248    0.0226   -0.4980 C.3       1 ACP         0.0915
     16 O4'         2.4697    1.4219   -0.2462 O.3       1 ACP        -0.3675
     17 C3'         1.9404   -0.7419    0.5596 C.3       1 ACP         0.0748
     18 O3'         2.7418   -0.8086    1.7389 O.3       1 ACP        -0.5646
     19 C2'         0.7477    0.1630    0.7858 C.3       1 ACP         0.0804
     20 O2'         0.1373   -0.0577    2.0407 O.3       1 ACP        -0.5882
     21 C1'         1.3733    1.5427    0.6747 C.3       1 ACP         0.3809
     22 N9          0.4520    2.5240    0.1767 N.pl3     1 ACP        -0.4412
     23 C8          0.1798    2.8712   -1.2933 C.ar      1 ACP         0.1936
     24 N7         -0.7494    3.8400   -1.3610 N.2       1 ACP        -0.2746
     25 C5         -1.0173    4.0603   -0.0358 C.ar      1 ACP        -0.1386
     26 C6         -2.0105    5.0717    0.4241 C.ar      1 ACP         0.4778
     27 N6         -2.6723    5.7982   -0.4628 N.pl3     1 ACP        -0.8290
     28 N1         -2.1445    5.1522    1.7502 N.pl3     1 ACP        -0.6985
     29 C2         -1.3755    4.3143    2.6426 C.ar      1 ACP         0.6179
     30 N3         -0.5075    3.4292    2.2616 N.ar      1 ACP        -0.5105
     31 C4         -0.3667    3.3425    0.9070 C.ar      1 ACP         0.2753
     32 HOG2        3.8719   -4.7436   -6.0519 H         1 ACP         0.4487
     33 HOG3        6.7293   -4.6678   -6.3435 H         1 ACP         0.4487
     34 H3B1        4.8129   -4.4466   -2.2850 H         1 ACP         0.1088
     35 H3B2        6.5632   -4.4039   -2.4765 H         1 ACP         0.1088
     36 H5'1        1.3501    0.2325   -2.1561 H         1 ACP         0.0327
     37 H5'2        2.1268   -1.3683   -2.0445 H         1 ACP         0.0327
     38 H4'         3.8046   -0.1390   -0.4011 H         1 ACP         0.1275
     39 H3'         1.6787   -1.7627    0.2719 H         1 ACP         0.0637
     40 HO3'        2.2231   -1.2979    2.3952 H         1 ACP         0.4127
     41 H2'         0.0002   -0.0084   -0.0014 H         1 ACP         0.0692
     42 HO2'       -0.6132    0.5577    2.1063 H         1 ACP         0.4431
     43 H1'         1.7718    1.9211    1.6015 H         1 ACP         0.1199
     44 H8          0.6089    2.4651   -2.2147 H         1 ACP         0.2941
     45 HN61       -2.5055    5.6680   -1.4503 H         1 ACP         0.4754
     46 HN62       -3.3462    6.4841   -0.1542 H         1 ACP         0.4754
     47 H2         -1.5932    4.4937    3.7066 H         1 ACP         0.0886
     48 H48        -2.8098    5.8270    2.1160 H         1 ACP         0.4707
@<TRIPOS>BOND
     1    1    2 2
     2    1    3 1
     3    1    4 1
     4    1    8 1
     5    3   32 1
     6    4   33 1
     7    5    6 2
     8    5    7 1
     9    5    8 1
    10    5   12 1
    11    8   34 1
    12    8   35 1
    13    9   10 2
    14    9   11 1
    15    9   12 1
    16    9   13 1
    17   13   14 1
    18   14   15 1
    19   14   36 1
    20   14   37 1
    21   15   16 1
    22   15   17 1
    23   15   38 1
    24   16   21 1
    25   17   18 1
    26   17   19 1
    27   17   39 1
    28   18   40 1
    29   19   20 1
    30   19   21 1
    31   19   41 1
    32   20   42 1
    33   21   22 1
    34   21   43 1
    35   22   23 ar
    36   22   31 ar
    37   23   24 ar
    38   23   44 1
    39   24   25 ar
    40   25   26 ar
    41   25   31 ar
    42   26   27 1
    43   26   28 ar
    44   27   45 1
    45   27   46 1
    46   28   29 ar
    47   28   48 1
    48   29   30 ar
    49   29   47 1
    50   30   31 ar
@<TRIPOS>SUBSTRUCTURE
     1 ACP         1 GROUP 0 A     ****
@<TRIPOS>MOLECULE
[[5-(6-amino-1,8-dihydropurine-6,8-diylium-7-id-9-yl)-3,4-dihydroxy-tetrahydrofuran-2-yl]methoxy-oxido-phosphoryl]oxy-(phosphonomethyl)phosphinate
   48    50     1     0     0
SMALL
USER_CHARGES

@<TRIPOS>ATOM
      1 PG         -0.9306    1.7042   -5.6807 P.3       1 ACP         1.6558
      2 O1G        -2.4047    1.9527   -5.5683 O.2       1 ACP        -0.9020
      3 O2G        -0.0847    1.9215   -4.3215 O.3       1 ACP        -0.8036
      4 O3G        -0.1540    2.6198   -6.7615 O.3       1 ACP        -0.8036
      5 PB          1.2542   -0.5445   -6.3877 P.3       1 ACP         1.4945
      6 O1B         1.8795    0.3207   -7.4572 O.co2     1 ACP        -0.8481
      7 O2B         1.2306   -2.0526   -6.4810 O.co2     1 ACP        -0.8481
      8 C3B        -0.4936    0.0222   -6.1763 C.3       1 ACP        -0.6636
      9 PA          3.3317   -0.0541   -4.3262 P.3       1 ACP         1.6023
     10 O1A         4.1267    0.9765   -5.0986 O.co2     1 ACP        -0.8673
     11 O2A         3.8308   -1.4772   -4.2013 O.co2     1 ACP        -0.8673
     12 O3A         1.8123   -0.0905   -4.9242 O.3       1 ACP        -0.8150
     13 O5'         3.0199    0.5139   -2.8245 O.3       1 ACP        -0.5522
     14 C5'         2.2816   -0.2918   -1.9206 C.3       1 ACP         0.2181
     15 C4'         2.7248    0.0226   -0.4980 C.3       1 ACP         0.0915
     16 O4'         2.4697    1.4219   -0.2462 O.3       1 ACP        -0.3675
     17 C3'         1.9404   -0.7419    0.5596 C.3       1 ACP         0.0748
     18 O3'         2.7418   -0.8086    1.7389 O.3       1 ACP        -0.5646
     19 C2'         0.7477    0.1630    0.7858 C.3       1 ACP         0.0804
     20 O2'         0.1373   -0.0577    2.0407 O.3       1 ACP        -0.5882
     21 C1'         1.3733    1.5427    0.6747 C.3       1 ACP         0.3809
     22 N9          0.4520    2.5240    0.1767 N.pl3     1 ACP        -0.4412
     23 C8          0.5793    3.3338   -1.1209 C.ar      1 ACP         0.1936
     24 N7         -0.4807    4.1508   -1.2458 N.2       1 ACP        -0.2746
     25 C5         -1.1921    3.8572   -0.1126 C.ar      1 ACP        -0.1386
     26 C6         -2.4855    4.5203    0.2163 C.ar      1 ACP         0.4778
     27 N6         -2.9873    5.4319   -0.6020 N.pl3     1 ACP        -0.8290
     28 N1         -3.0414    4.1119    1.3596 N.pl3     1 ACP        -0.6985
     29 C2         -2.4169    3.1071    2.1904 C.ar      1 ACP         0.6179
     30 N3         -1.2928    2.5191    1.9210 N.ar      1 ACP        -0.5105
     31 C4         -0.7202    2.9326    0.7534 C.ar      1 ACP         0.2753
     32 HOG2       -0.0898    2.8046   -3.8948 H         1 ACP         0.4487
     33 HOG3       -0.1684    3.5949   -6.6560 H         1 ACP         0.4487
     34 H3B1       -0.9393   -0.6640   -5.4473 H         1 ACP         0.1088
     35 H3B2       -0.9875   -0.1668   -7.1362 H         1 ACP         0.1088
     36 H5'1        1.2154   -0.0780   -2.0455 H         1 ACP         0.0327
     37 H5'2        2.4646   -1.3453   -2.1548 H         1 ACP         0.0327
     38 H4'         3.8046   -0.1390   -0.4011 H         1 ACP         0.1275
     39 H3'         1.6787   -1.7627    0.2719 H         1 ACP         0.0637
     40 HO3'        2.2231   -1.2979    2.3952 H         1 ACP         0.4127
     41 H2'         0.0002   -0.0084   -0.0014 H         1 ACP         0.0692
     42 HO2'       -0.1554   -0.9852    2.0577 H         1 ACP         0.4431
     43 H1'         1.7718    1.9211    1.6015 H         1 ACP         0.1199
     44 H8          1.3565    3.3309   -1.8916 H         1 ACP         0.2941
     45 HN61       -2.4952    5.6785   -1.4487 H         1 ACP         0.4754
     46 HN62       -3.8637    5.8828   -0.3819 H         1 ACP         0.4754
     47 H2         -2.9911    2.8734    3.1000 H         1 ACP         0.0886
     48 H48        -3.9253    4.5332    1.6302 H         1 ACP         0.4707
@<TRIPOS>BOND
     1    1    2 2
     2    1    3 1
     3    1    4 1
     4    1    8 1
     5    3   32 1
     6    4   33 1
     7    5    6 2
     8    5    7 1
     9    5    8 1
    10    5   12 1
    11    8   34 1
    12    8   35 1
    13    9   10 2
    14    9   11 1
    15    9   12 1
    16    9   13 1
    17   13   14 1
    18   14   15 1
    19   14   36 1
    20   14   37 1
    21   15   16 1
    22   15   17 1
    23   15   38 1
    24   16   21 1
    25   17   18 1
    26   17   19 1
    27   17   39 1
    28   18   40 1
    29   19   20 1
    30   19   21 1
    31   19   41 1
    32   20   42 1
    33   21   22 1
    34   21   43 1
    35   22   23 ar
    36   22   31 ar
    37   23   24 ar
    38   23   44 1
    39   24   25 ar
    40   25   26 ar
    41   25   31 ar
    42   26   27 1
    43   26   28 ar
    44   27   45 1
    45   27   46 1
    46   28   29 ar
    47   28   48 1
    48   29   30 ar
    49   29   47 1
    50   30   31 ar
@<TRIPOS>SUBSTRUCTURE
     1 ACP         1 GROUP 0 A     ****
@<TRIPOS>MOLECULE
[[5-(6-amino-1,8-dihydropurine-6,8-diylium-7-id-9-yl)-3,4-dihydroxy-tetrahydrofuran-2-yl]methoxy-oxido-phosphoryl]oxy-(phosphonomethyl)phosphinate
   48    50     1     0     0
SMALL
USER_CHARGES

@<TRIPOS>ATOM
      1 PG         -1.4660   -0.3923   -5.6859 P.3       1 ACP         1.6558
      2 O1G        -0.2926    0.5326   -5.8075 O.2       1 ACP        -0.9020
      3 O2G        -2.4518   -0.4347   -6.9652 O.3       1 ACP        -0.8036
      4 O3G        -2.4613   -0.0902   -4.4498 O.3       1 ACP        -0.8036
      5 PB         -0.0341   -2.7256   -4.0021 P.3       1 ACP         1.4945
      6 O1B         0.1230   -4.2208   -4.1548 O.co2     1 ACP        -0.8481
      7 O2B        -0.6236   -2.0986   -2.7600 O.co2     1 ACP        -0.8481
      8 C3B        -1.0254   -2.1282   -5.4448 C.3       1 ACP        -0.6636
      9 PA          2.8590   -2.1285   -3.7205 P.3       1 ACP         1.6023
     10 O1A         3.7684   -1.1070   -4.3687 O.co2     1 ACP        -0.8673
     11 O2A         3.2371   -3.5936   -3.6994 O.co2     1 ACP        -0.8673
     12 O3A         1.3710   -1.9888   -4.3790 O.3       1 ACP        -0.8150
     13 O5'         2.5238   -1.6632   -2.1888 O.3       1 ACP        -0.5522
     14 C5'         2.2816   -0.2918   -1.9206 C.3       1 ACP         0.2181
     15 C4'         2.7248    0.0226   -0.4980 C.3       1 ACP         0.0915
     16 O4'         2.4697    1.4219   -0.2462 O.3       1 ACP        -0.3675
     17 C3'         1.9404   -0.7419    0.5596 C.3       1 ACP         0.0748
     18 O3'         2.7418   -0.8086    1.7389 O.3       1 ACP        -0.5646
     19 C2'         0.7477    0.1630    0.7858 C.3       1 ACP         0.0804
     20 O2'         0.1373   -0.0577    2.0407 O.3       1 ACP        -0.5882
     21 C1'         1.3733    1.5427    0.6747 C.3       1 ACP         0.3809
     22 N9          0.4520    2.5240    0.1767 N.pl3     1 ACP        -0.4412
     23 C8          0.1798    2.8712   -1.2933 C.ar      1 ACP         0.1936
     24 N7         -0.7494    3.8400   -1.3610 N.2       1 ACP        -0.2746
     25 C5         -1.0173    4.0603   -0.0358 C.ar      1 ACP        -0.1386
     26 C6         -2.0105    5.0717    0.4241 C.ar      1 ACP         0.4778
     27 N6         -2.6723    5.7982   -0.4628 N.pl3     1 ACP        -0.8290
     28 N1         -2.1445    5.1522    1.7502 N.pl3     1 ACP        -0.6985
     29 C2         -1.3755    4.3143    2.6426 C.ar      1 ACP         0.6179
     30 N3         -0.5075    3.4292    2.2616 N.ar      1 ACP        -0.5105
     31 C4         -0.3667    3.3425    0.9070 C.ar      1 ACP         0.2753
     32 HOG2       -2.8981    0.3915   -7.2486 H         1 ACP         0.4487
     33 HOG3       -2.9086    0.7814   -4.4020 H         1 ACP         0.4487
     34 H3B1       -1.9563   -2.7059   -5.4216 H         1 ACP         0.1088
     35 H3B2       -0.4749   -2.4453   -6.3378 H         1 ACP         0.1088
     36 H5'1        2.8430    0.3138   -2.6391 H         1 ACP         0.0327
     37 H5'2        1.2126   -0.0907   -2.0421 H         1 ACP         0.0327
     38 H4'         3.8046   -0.1390   -0.4011 H         1 ACP         0.1275
     39 H3'         1.6787   -1.7627    0.2719 H         1 ACP         0.0637
     40 HO3'        3.5553   -1.2733    1.4913 H         1 ACP         0.4127
     41 H2'         0.0002   -0.0084   -0.0014 H         1 ACP         0.0692
     42 HO2'       -0.6132    0.5577    2.1063 H         1 ACP         0.4431
     43 H1'         1.7718    1.9211    1.6015 H         1 ACP         0.1199
     44 H8          0.6089    2.4651   -2.2147 H         1 ACP         0.2941
     45 HN61       -2.5055    5.6680   -1.4503 H         1 ACP         0.4754
     46 HN62       -3.3462    6.4841   -0.1542 H         1 ACP         0.4754
     47 H2         -1.5932    4.4937    3.7066 H         1 ACP         0.0886
     48 H48        -2.8098    5.8270    2.1160 H         1 ACP         0.4707
@<TRIPOS>BOND
     1    1    2 2
     2    1    3 1
     3    1    4 1
     4    1    8 1
     5    3   32 1
     6    4   33 1
     7    5    6 2
     8    5    7 1
     9    5    8 1
    10    5   12 1
    11    8   34 1
    12    8   35 1
    13    9   10 2
    14    9   11 1
    15    9   12 1
    16    9   13 1
    17   13   14 1
    18   14   15 1
    19   14   36 1
    20   14   37 1
    21   15   16 1
    22   15   17 1
    23   15   38 1
    24   16   21 1
    25   17   18 1
    26   17   19 1
    27   17   39 1
    28   18   40 1
    29   19   20 1
    30   19   21 1
    31   19   41 1
    32   20   42 1
    33   21   22 1
    34   21   43 1
    35   22   23 ar
    36   22   31 ar
    37   23   24 ar
    38   23   44 1
    39   24   25 ar
    40   25   26 ar
    41   25   31 ar
    42   26   27 1
    43   26   28 ar
    44   27   45 1
    45   27   46 1
    46   28   29 ar
    47   28   48 1
    48   29   30 ar
    49   29   47 1
    50   30   31 ar
@<TRIPOS>SUBSTRUCTURE
     1 ACP         1 GROUP 0 A     ****
@<TRIPOS>MOLECULE
[[5-(6-amino-1,8-dihydropurine-6,8-diylium-7-id-9-yl)-3,4-dihydroxy-tetrahydrofuran-2-yl]methoxy-oxido-phosphoryl]oxy-(phosphonomethyl)phosphinate
   48    50     1     0     0
SMALL
USER_CHARGES

@<TRIPOS>ATOM
      1 PG         -3.8636   -5.7971   -1.6985 P.3       1 ACP         1.6558
      2 O1G        -2.4724   -5.2633   -1.5347 O.2       1 ACP        -0.9020
      3 O2G        -3.9646   -7.3523   -2.1243 O.3       1 ACP        -0.8036
      4 O3G        -4.7701   -5.0420   -2.8020 O.3       1 ACP        -0.8036
      5 PB         -4.4219   -6.5630    1.3726 P.3       1 ACP         1.4945
      6 O1B        -4.3438   -8.0425    1.0754 O.co2     1 ACP        -0.8481
      7 O2B        -5.3106   -6.0038    2.4594 O.co2     1 ACP        -0.8481
      8 C3B        -4.8763   -5.7101   -0.2044 C.3       1 ACP        -0.6636
      9 PA         -1.7146   -6.3345    2.5661 P.3       1 ACP         1.6023
     10 O1A        -1.2620   -7.7508    2.2839 O.co2     1 ACP        -0.8673
     11 O2A        -2.1427   -5.9251    3.9586 O.co2     1 ACP        -0.8673
     12 O3A        -2.9154   -5.9576    1.5252 O.3       1 ACP        -0.8150
     13 O5'        -0.5696   -5.2856    2.0523 O.3       1 ACP        -0.5522
     14 C5'        -0.7840   -3.8935    2.2172 C.3       1 ACP         0.2181
     15 C4'        -0.0724   -3.1466    1.1027 C.3       1 ACP         0.0915
     16 O4'        -0.8674   -3.1929   -0.0945 O.3       1 ACP        -0.3675
     17 C3'         0.1338   -1.6715    1.4027 C.3       1 ACP         0.0748
     18 O3'         1.2893   -1.4445    2.1808 O.3       1 ACP        -0.5646
     19 C2'         0.2158   -1.0724    0.0128 C.3       1 ACP         0.0804
     20 O2'         1.5141   -1.2448   -0.5513 O.3       1 ACP        -0.5882
     21 C1'        -0.7897   -1.9176   -0.7583 C.3       1 ACP         0.3809
     22 N9         -2.1040   -1.3333   -0.7704 N.pl3     1 ACP        -0.4412
     23 C8         -3.2124   -1.5345    0.2719 C.ar      1 ACP         0.1936
     24 N7         -4.2964   -0.8234   -0.0828 N.2       1 ACP        -0.2746
     25 C5         -3.8754   -0.2386   -1.2478 C.ar      1 ACP        -0.1386
     26 C6         -4.7432    0.6719   -2.0470 C.ar      1 ACP         0.4778
     27 N6         -5.9725    0.9415   -1.6366 N.pl3     1 ACP        -0.8290
     28 N1         -4.1703    1.1517   -3.1536 N.pl3     1 ACP        -0.6985
     29 C2         -2.8174    0.7994   -3.5215 C.ar      1 ACP         0.6179
     30 N3         -2.0475    0.0097   -2.8393 N.ar      1 ACP        -0.5105
     31 C4         -2.6278   -0.4836   -1.7071 C.ar      1 ACP         0.2753
     32 HOG2       -3.5567   -7.6412   -2.9683 H         1 ACP         0.4487
     33 HOG3       -4.4682   -5.0266   -3.7351 H         1 ACP         0.4487
     34 H3B1       -4.9917   -4.6519    0.0561 H         1 ACP         0.1088
     35 H3B2       -5.8716   -6.0838   -0.4705 H         1 ACP         0.1088
     36 H5'1       -1.8599   -3.6947    2.1849 H         1 ACP         0.0327
     37 H5'2       -0.3934   -3.5882    3.1930 H         1 ACP         0.0327
     38 H4'         0.8883   -3.6447    0.8783 H         1 ACP         0.1275
     39 H3'        -0.7368   -1.2359    1.9871 H         1 ACP         0.0637
     40 HO3'        1.3407   -0.4871    2.3218 H         1 ACP         0.4127
     41 H2'        -0.0343   -0.0280    0.0196 H         1 ACP         0.0692
     42 HO2'        2.1443   -0.7955    0.0378 H         1 ACP         0.4431
     43 H1'        -0.5175   -2.1046   -1.7826 H         1 ACP         0.1199
     44 H8         -3.2310   -2.1319    1.1889 H         1 ACP         0.2941
     45 HN61       -6.3230    0.5316   -0.7829 H         1 ACP         0.4754
     46 HN62       -6.5628    1.5584   -2.1760 H         1 ACP         0.4754
     47 H2         -2.4822    1.2710   -4.4579 H         1 ACP         0.0886
     48 H48        -4.7200    1.7780   -3.7346 H         1 ACP         0.4707
@<TRIPOS>BOND
     1    1    2 2
     2    1    3 1
     3    1    4 1
     4    1    8 1
     5    3   32 1
     6    4   33 1
     7    5    6 2
     8    5    7 1
     9    5    8 1
    10    5   12 1
    11    8   34 1
    12    8   35 1
    13    9   10 2
    14    9   11 1
    15    9   12 1
    16    9   13 1
    17   13   14 1
    18   14   15 1
    19   14   36 1
    20   14   37 1
    21   15   16 1
    22   15   17 1
    23   15   38 1
    24   16   21 1
    25   17   18 1
    26   17   19 1
    27   17   39 1
    28   18   40 1
    29   19   20 1
    30   19   21 1
    31   19   41 1
    32   20   42 1
    33   21   22 1
    34   21   43 1
    35   22   23 ar
    36   22   31 ar
    37   23   24 ar
    38   23   44 1
    39   24   25 ar
    40   25   26 ar
    41   25   31 ar
    42   26   27 1
    43   26   28 ar
    44   27   45 1
    45   27   46 1
    46   28   29 ar
    47   28   48 1
    48   29   30 ar
    49   29   47 1
    50   30   31 ar
@<TRIPOS>SUBSTRUCTURE
     1 ACP         1 GROUP 0 A     ****
@<TRIPOS>MOLECULE
[[5-(6-amino-1,8-dihydropurine-6,8-diylium-7-id-9-yl)-3,4-dihydroxy-tetrahydrofuran-2-yl]methoxy-oxido-phosphoryl]oxy-(phosphonomethyl)phosphinate
   48    50     1     0     0
SMALL
USER_CHARGES

@<TRIPOS>ATOM
      1 PG         -1.2891   -0.4478   -4.7769 P.3       1 ACP         1.6558
      2 O1G        -0.6804   -1.7615   -4.3886 O.2       1 ACP        -0.9020
      3 O2G        -1.6330    0.5470   -3.5512 O.3       1 ACP        -0.8036
      4 O3G        -2.6814   -0.5428   -5.5906 O.3       1 ACP        -0.8036
      5 PB          1.4317    1.1584   -5.3662 P.3       1 ACP         1.4945
      6 O1B         1.2663    2.0041   -4.1249 O.co2     1 ACP        -0.8481
      7 O2B         2.1051    1.6799   -6.6145 O.co2     1 ACP        -0.8481
      8 C3B        -0.2510    0.5657   -5.8542 C.3       1 ACP        -0.6636
      9 PA          3.4810   -0.6670   -4.2373 P.3       1 ACP         1.6023
     10 O1A         4.6070   -0.0329   -5.0251 O.co2     1 ACP        -0.8673
     11 O2A         3.4859   -2.1517   -3.9447 O.co2     1 ACP        -0.8673
     12 O3A         2.0662   -0.2878   -4.9597 O.3       1 ACP        -0.8150
     13 O5'         3.2885    0.1337   -2.8242 O.3       1 ACP        -0.5522
     14 C5'         2.2816   -0.2918   -1.9206 C.3       1 ACP         0.2181
     15 C4'         2.7248    0.0226   -0.4980 C.3       1 ACP         0.0915
     16 O4'         2.4697    1.4219   -0.2462 O.3       1 ACP        -0.3675
     17 C3'         1.9404   -0.7419    0.5596 C.3       1 ACP         0.0748
     18 O3'         2.7418   -0.8086    1.7389 O.3       1 ACP        -0.5646
     19 C2'         0.7477    0.1630    0.7858 C.3       1 ACP         0.0804
     20 O2'         0.1373   -0.0577    2.0407 O.3       1 ACP        -0.5882
     21 C1'         1.3733    1.5427    0.6747 C.3       1 ACP         0.3809
     22 N9          0.4520    2.5240    0.1767 N.pl3     1 ACP        -0.4412
     23 C8          0.5793    3.3338   -1.1209 C.ar      1 ACP         0.1936
     24 N7         -0.4807    4.1508   -1.2458 N.2       1 ACP        -0.2746
     25 C5         -1.1921    3.8572   -0.1126 C.ar      1 ACP        -0.1386
     26 C6         -2.4855    4.5203    0.2163 C.ar      1 ACP         0.4778
     27 N6         -2.9873    5.4319   -0.6020 N.pl3     1 ACP        -0.8290
     28 N1         -3.0414    4.1119    1.3596 N.pl3     1 ACP        -0.6985
     29 C2         -2.4169    3.1071    2.1904 C.ar      1 ACP         0.6179
     30 N3         -1.2928    2.5191    1.9210 N.ar      1 ACP        -0.5105
     31 C4         -0.7202    2.9326    0.7534 C.ar      1 ACP         0.2753
     32 HOG2       -2.2630    0.2499   -2.8606 H         1 ACP         0.4487
     33 HOG3       -3.4493   -0.9835   -5.1686 H         1 ACP         0.4487
     34 H3B1       -0.1087    0.0146   -6.7907 H         1 ACP         0.1088
     35 H3B2       -0.8262    1.4662   -6.0978 H         1 ACP         0.1088
     36 H5'1        1.3501    0.2325   -2.1561 H         1 ACP         0.0327
     37 H5'2        2.1268   -1.3683   -2.0445 H         1 ACP         0.0327
     38 H4'         3.8046   -0.1390   -0.4011 H         1 ACP         0.1275
     39 H3'         1.6787   -1.7627    0.2719 H         1 ACP         0.0637
     40 HO3'        2.2231   -1.2979    2.3952 H         1 ACP         0.4127
     41 H2'         0.0002   -0.0084   -0.0014 H         1 ACP         0.0692
     42 HO2'       -0.1554   -0.9852    2.0577 H         1 ACP         0.4431
     43 H1'         1.7718    1.9211    1.6015 H         1 ACP         0.1199
     44 H8          1.3565    3.3309   -1.8916 H         1 ACP         0.2941
     45 HN61       -2.4952    5.6785   -1.4487 H         1 ACP         0.4754
     46 HN62       -3.8637    5.8828   -0.3819 H         1 ACP         0.4754
     47 H2         -2.9911    2.8734    3.1000 H         1 ACP         0.0886
     48 H48        -3.9253    4.5332    1.6302 H         1 ACP         0.4707
@<TRIPOS>BOND
     1    1    2 2
     2    1    3 1
     3    1    4 1
     4    1    8 1
     5    3   32 1
     6    4   33 1
     7    5    6 2
     8    5    7 1
     9    5    8 1
    10    5   12 1
    11    8   34 1
    12    8   35 1
    13    9   10 2
    14    9   11 1
    15    9   12 1
    16    9   13 1
    17   13   14 1
    18   14   15 1
    19   14   36 1
    20   14   37 1
    21   15   16 1
    22   15   17 1
    23   15   38 1
    24   16   21 1
    25   17   18 1
    26   17   19 1
    27   17   39 1
    28   18   40 1
    29   19   20 1
    30   19   21 1
    31   19   41 1
    32   20   42 1
    33   21   22 1
    34   21   43 1
    35   22   23 ar
    36   22   31 ar
    37   23   24 ar
    38   23   44 1
    39   24   25 ar
    40   25   26 ar
    41   25   31 ar
    42   26   27 1
    43   26   28 ar
    44   27   45 1
    45   27   46 1
    46   28   29 ar
    47   28   48 1
    48   29   30 ar
    49   29   47 1
    50   30   31 ar
@<TRIPOS>SUBSTRUCTURE
     1 ACP         1 GROUP 0 A     ****
@<TRIPOS>MOLECULE
[[5-(6-amino-1,8-dihydropurine-6,8-diylium-7-id-9-yl)-3,4-dihydroxy-tetrahydrofuran-2-yl]methoxy-oxido-phosphoryl]oxy-(phosphonomethyl)phosphinate
   48    50     1     0     0
SMALL
USER_CHARGES

@<TRIPOS>ATOM
      1 PG         -5.9031   -4.7790    1.0128 P.3       1 ACP         1.6558
      2 O1G        -6.9073   -3.7688    0.5454 O.2       1 ACP        -0.9020
      3 O2G        -4.3855   -4.5292    0.5181 O.3       1 ACP        -0.8036
      4 O3G        -6.1992   -6.3050    0.5730 O.3       1 ACP        -0.8036
      5 PB         -4.5722   -6.0589    3.6435 P.3       1 ACP         1.4945
      6 O1B        -4.9629   -7.4582    3.2275 O.co2     1 ACP        -0.8481
      7 O2B        -4.4806   -5.6438    5.0936 O.co2     1 ACP        -0.8481
      8 C3B        -5.7401   -4.8925    2.8089 C.3       1 ACP        -0.6636
      9 PA         -1.7213   -6.2745    2.8484 P.3       1 ACP         1.6023
     10 O1A        -1.8046   -7.6445    2.2109 O.co2     1 ACP        -0.8673
     11 O2A        -1.1153   -6.1001    4.2240 O.co2     1 ACP        -0.8673
     12 O3A        -3.2154   -5.6149    2.8552 O.3       1 ACP        -0.8150
     13 O5'        -0.9728   -5.2428    1.8236 O.3       1 ACP        -0.5522
     14 C5'        -0.7840   -3.8935    2.2172 C.3       1 ACP         0.2181
     15 C4'        -0.0724   -3.1466    1.1027 C.3       1 ACP         0.0915
     16 O4'        -0.8674   -3.1929   -0.0945 O.3       1 ACP        -0.3675
     17 C3'         0.1338   -1.6715    1.4027 C.3       1 ACP         0.0748
     18 O3'         1.2893   -1.4445    2.1808 O.3       1 ACP        -0.5646
     19 C2'         0.2158   -1.0724    0.0128 C.3       1 ACP         0.0804
     20 O2'         1.5141   -1.2448   -0.5513 O.3       1 ACP        -0.5882
     21 C1'        -0.7897   -1.9176   -0.7583 C.3       1 ACP         0.3809
     22 N9         -2.1040   -1.3333   -0.7704 N.pl3     1 ACP        -0.4412
     23 C8         -3.2124   -1.5345    0.2719 C.ar      1 ACP         0.1936
     24 N7         -4.2964   -0.8234   -0.0828 N.2       1 ACP        -0.2746
     25 C5         -3.8754   -0.2386   -1.2478 C.ar      1 ACP        -0.1386
     26 C6         -4.7432    0.6719   -2.0470 C.ar      1 ACP         0.4778
     27 N6         -5.9725    0.9415   -1.6366 N.pl3     1 ACP        -0.8290
     28 N1         -4.1703    1.1517   -3.1536 N.pl3     1 ACP        -0.6985
     29 C2         -2.8174    0.7994   -3.5215 C.ar      1 ACP         0.6179
     30 N3         -2.0475    0.0097   -2.8393 N.ar      1 ACP        -0.5105
     31 C4         -2.6278   -0.4836   -1.7071 C.ar      1 ACP         0.2753
     32 HOG2       -4.1960   -4.5137   -0.4441 H         1 ACP         0.4487
     33 HOG3       -6.2486   -6.5232   -0.3820 H         1 ACP         0.4487
     34 H3B1       -5.4767   -3.8960    3.1810 H         1 ACP         0.1088
     35 H3B2       -6.7338   -5.1293    3.2058 H         1 ACP         0.1088
     36 H5'1       -1.7614   -3.4428    2.4166 H         1 ACP         0.0327
     37 H5'2       -0.1870   -3.8724    3.1344 H         1 ACP         0.0327
     38 H4'         0.8883   -3.6447    0.8783 H         1 ACP         0.1275
     39 H3'        -0.7368   -1.2359    1.9871 H         1 ACP         0.0637
     40 HO3'        1.3407   -0.4871    2.3218 H         1 ACP         0.4127
     41 H2'        -0.0343   -0.0280    0.0196 H         1 ACP         0.0692
     42 HO2'        2.1443   -0.7955    0.0378 H         1 ACP         0.4431
     43 H1'        -0.5175   -2.1046   -1.7826 H         1 ACP         0.1199
     44 H8         -3.2310   -2.1319    1.1889 H         1 ACP         0.2941
     45 HN61       -6.3230    0.5316   -0.7829 H         1 ACP         0.4754
     46 HN62       -6.5628    1.5584   -2.1760 H         1 ACP         0.4754
     47 H2         -2.4822    1.2710   -4.4579 H         1 ACP         0.0886
     48 H48        -4.7200    1.7780   -3.7346 H         1 ACP         0.4707
@<TRIPOS>BOND
     1    1    2 2
     2    1    3 1
     3    1    4 1
     4    1    8 1
     5    3   32 1
     6    4   33 1
     7    5    6 2
     8    5    7 1
     9    5    8 1
    10    5   12 1
    11    8   34 1
    12    8   35 1
    13    9   10 2
    14    9   11 1
    15    9   12 1
    16    9   13 1
    17   13   14 1
    18   14   15 1
    19   14   36 1
    20   14   37 1
    21   15   16 1
    22   15   17 1
    23   15   38 1
    24   16   21 1
    25   17   18 1
    26   17   19 1
    27   17   39 1
    28   18   40 1
    29   19   20 1
    30   19   21 1
    31   19   41 1
    32   20   42 1
    33   21   22 1
    34   21   43 1
    35   22   23 ar
    36   22   31 ar
    37   23   24 ar
    38   23   44 1
    39   24   25 ar
    40   25   26 ar
    41   25   31 ar
    42   26   27 1
    43   26   28 ar
    44   27   45 1
    45   27   46 1
    46   28   29 ar
    47   28   48 1
    48   29   30 ar
    49   29   47 1
    50   30   31 ar
@<TRIPOS>SUBSTRUCTURE
     1 ACP         1 GROUP 0 A     ****
@<TRIPOS>MOLECULE
[[5-(6-amino-1,8-dihydropurine-6,8-diylium-7-id-9-yl)-3,4-dihydroxy-tetrahydrofuran-2-yl]methoxy-oxido-phosphoryl]oxy-(phosphonomethyl)phosphinate
   48    50     1     0     0
SMALL
USER_CHARGES

@<TRIPOS>ATOM
      1 PG          5.8858   -3.2480    0.2985 P.3       1 ACP         1.6558
      2 O1G         5.4841   -1.8167    0.4915 O.2       1 ACP        -0.9020
      3 O2G         5.5582   -4.2336    1.5361 O.3       1 ACP        -0.8036
      4 O3G         7.4581   -3.4953    0.0225 O.3       1 ACP        -0.8036
      5 PB          5.2667   -3.4746   -2.8472 P.3       1 ACP         1.4945
      6 O1B         4.4600   -4.4078   -3.7200 O.co2     1 ACP        -0.8481
      7 O2B         6.7358   -3.2137   -3.0865 O.co2     1 ACP        -0.8481
      8 C3B         5.0884   -4.0637   -1.1030 C.3       1 ACP        -0.6636
      9 PA          3.9981   -0.9679   -3.8029 P.3       1 ACP         1.6023
     10 O1A         2.9471   -1.6100   -4.6826 O.co2     1 ACP        -0.8673
     11 O2A         5.2319   -0.3374   -4.4112 O.co2     1 ACP        -0.8673
     12 O3A         4.4739   -2.0589   -2.6844 O.3       1 ACP        -0.8150
     13 O5'         3.2885    0.1337   -2.8242 O.3       1 ACP        -0.5522
     14 C5'         2.2816   -0.2918   -1.9206 C.3       1 ACP         0.2181
     15 C4'         2.7248    0.0226   -0.4980 C.3       1 ACP         0.0915
     16 O4'         2.4697    1.4219   -0.2462 O.3       1 ACP        -0.3675
     17 C3'         1.9404   -0.7419    0.5596 C.3       1 ACP         0.0748
     18 O3'         2.7418   -0.8086    1.7389 O.3       1 ACP        -0.5646
     19 C2'         0.7477    0.1630    0.7858 C.3       1 ACP         0.0804
     20 O2'         0.1373   -0.0577    2.0407 O.3       1 ACP        -0.5882
     21 C1'         1.3733    1.5427    0.6747 C.3       1 ACP         0.3809
     22 N9          0.4520    2.5240    0.1767 N.pl3     1 ACP        -0.4412
     23 C8          0.1798    2.8712   -1.2933 C.ar      1 ACP         0.1936
     24 N7         -0.7494    3.8400   -1.3610 N.2       1 ACP        -0.2746
     25 C5         -1.0173    4.0603   -0.0358 C.ar      1 ACP        -0.1386
     26 C6         -2.0105    5.0717    0.4241 C.ar      1 ACP         0.4778
     27 N6         -2.6723    5.7982   -0.4628 N.pl3     1 ACP        -0.8290
     28 N1         -2.1445    5.1522    1.7502 N.pl3     1 ACP        -0.6985
     29 C2         -1.3755    4.3143    2.6426 C.ar      1 ACP         0.6179
     30 N3         -0.5075    3.4292    2.2616 N.ar      1 ACP        -0.5105
     31 C4         -0.3667    3.3425    0.9070 C.ar      1 ACP         0.2753
     32 HOG2        5.9597   -4.0469    2.4113 H         1 ACP         0.4487
     33 HOG3        8.1097   -3.2111    0.6983 H         1 ACP         0.4487
     34 H3B1        5.4194   -5.1084   -1.1101 H         1 ACP         0.1088
     35 H3B2        4.0117   -4.0712   -0.8985 H         1 ACP         0.1088
     36 H5'1        1.3501    0.2325   -2.1561 H         1 ACP         0.0327
     37 H5'2        2.1268   -1.3683   -2.0445 H         1 ACP         0.0327
     38 H4'         3.8046   -0.1390   -0.4011 H         1 ACP         0.1275
     39 H3'         1.6787   -1.7627    0.2719 H         1 ACP         0.0637
     40 HO3'        3.5553   -1.2733    1.4913 H         1 ACP         0.4127
     41 H2'         0.0002   -0.0084   -0.0014 H         1 ACP         0.0692
     42 HO2'       -0.1554   -0.9852    2.0577 H         1 ACP         0.4431
     43 H1'         1.7718    1.9211    1.6015 H         1 ACP         0.1199
     44 H8          0.6089    2.4651   -2.2147 H         1 ACP         0.2941
     45 HN61       -2.5055    5.6680   -1.4503 H         1 ACP         0.4754
     46 HN62       -3.3462    6.4841   -0.1542 H         1 ACP         0.4754
     47 H2         -1.5932    4.4937    3.7066 H         1 ACP         0.0886
     48 H48        -2.8098    5.8270    2.1160 H         1 ACP         0.4707
@<TRIPOS>BOND
     1    1    2 2
     2    1    3 1
     3    1    4 1
     4    1    8 1
     5    3   32 1
     6    4   33 1
     7    5    6 2
     8    5    7 1
     9    5    8 1
    10    5   12 1
    11    8   34 1
    12    8   35 1
    13    9   10 2
    14    9   11 1
    15    9   12 1
    16    9   13 1
    17   13   14 1
    18   14   15 1
    19   14   36 1
    20   14   37 1
    21   15   16 1
    22   15   17 1
    23   15   38 1
    24   16   21 1
    25   17   18 1
    26   17   19 1
    27   17   39 1
    28   18   40 1
    29   19   20 1
    30   19   21 1
    31   19   41 1
    32   20   42 1
    33   21   22 1
    34   21   43 1
    35   22   23 ar
    36   22   31 ar
    37   23   24 ar
    38   23   44 1
    39   24   25 ar
    40   25   26 ar
    41   25   31 ar
    42   26   27 1
    43   26   28 ar
    44   27   45 1
    45   27   46 1
    46   28   29 ar
    47   28   48 1
    48   29   30 ar
    49   29   47 1
    50   30   31 ar
@<TRIPOS>SUBSTRUCTURE
     1 ACP         1 GROUP 0 A     ****
@<TRIPOS>MOLECULE
[[5-(6-amino-1,8-dihydropurine-6,8-diylium-7-id-9-yl)-3,4-dihydroxy-tetrahydrofuran-2-yl]methoxy-oxido-phosphoryl]oxy-(phosphonomethyl)phosphinate
   48    50     1     0     0
SMALL
USER_CHARGES

@<TRIPOS>ATOM
      1 PG          0.8770   -4.2443   -2.9249 P.3       1 ACP         1.6558
      2 O1G         1.2146   -4.3367   -1.4672 O.2       1 ACP        -0.9020
      3 O2G         0.0720   -2.9153   -3.3679 O.3       1 ACP        -0.8036
      4 O3G        -0.0312   -5.4485   -3.5034 O.3       1 ACP        -0.8036
      5 PB          3.6383   -2.9593   -3.9514 P.3       1 ACP         1.4945
      6 O1B         4.6529   -3.3016   -5.0177 O.co2     1 ACP        -0.8481
      7 O2B         4.0201   -2.7875   -2.4994 O.co2     1 ACP        -0.8481
      8 C3B         2.3113   -4.2456   -4.0240 C.3       1 ACP        -0.6636
      9 PA          3.0640   -0.0874   -4.4291 P.3       1 ACP         1.6023
     10 O1A         1.8214    0.6556   -4.8701 O.co2     1 ACP        -0.8673
     11 O2A         4.3865    0.1390   -5.1289 O.co2     1 ACP        -0.8673
     12 O3A         2.7413   -1.6884   -4.4406 O.3       1 ACP        -0.8150
     13 O5'         3.2885    0.1337   -2.8242 O.3       1 ACP        -0.5522
     14 C5'         2.2816   -0.2918   -1.9206 C.3       1 ACP         0.2181
     15 C4'         2.7248    0.0226   -0.4980 C.3       1 ACP         0.0915
     16 O4'         2.4697    1.4219   -0.2462 O.3       1 ACP        -0.3675
     17 C3'         1.9404   -0.7419    0.5596 C.3       1 ACP         0.0748
     18 O3'         2.7418   -0.8086    1.7389 O.3       1 ACP        -0.5646
     19 C2'         0.7477    0.1630    0.7858 C.3       1 ACP         0.0804
     20 O2'         0.1373   -0.0577    2.0407 O.3       1 ACP        -0.5882
     21 C1'         1.3733    1.5427    0.6747 C.3       1 ACP         0.3809
     22 N9          0.4520    2.5240    0.1767 N.pl3     1 ACP        -0.4412
     23 C8          0.1798    2.8712   -1.2933 C.ar      1 ACP         0.1936
     24 N7         -0.7494    3.8400   -1.3610 N.2       1 ACP        -0.2746
     25 C5         -1.0173    4.0603   -0.0358 C.ar      1 ACP        -0.1386
     26 C6         -2.0105    5.0717    0.4241 C.ar      1 ACP         0.4778
     27 N6         -2.6723    5.7982   -0.4628 N.pl3     1 ACP        -0.8290
     28 N1         -2.1445    5.1522    1.7502 N.pl3     1 ACP        -0.6985
     29 C2         -1.3755    4.3143    2.6426 C.ar      1 ACP         0.6179
     30 N3         -0.5075    3.4292    2.2616 N.ar      1 ACP        -0.5105
     31 C4         -0.3667    3.3425    0.9070 C.ar      1 ACP         0.2753
     32 HOG2       -0.8036   -2.7338   -2.9650 H         1 ACP         0.4487
     33 HOG3       -0.9203   -5.6006   -3.1181 H         1 ACP         0.4487
     34 H3B1        2.8247   -5.2054   -3.8971 H         1 ACP         0.1088
     35 H3B2        1.9277   -4.2219   -5.0504 H         1 ACP         0.1088
     36 H5'1        1.3501    0.2325   -2.1561 H         1 ACP         0.0327
     37 H5'2        2.1268   -1.3683   -2.0445 H         1 ACP         0.0327
     38 H4'         3.8046   -0.1390   -0.4011 H         1 ACP         0.1275
     39 H3'         1.6787   -1.7627    0.2719 H         1 ACP         0.0637
     40 HO3'        2.2231   -1.2979    2.3952 H         1 ACP         0.4127
     41 H2'         0.0002   -0.0084   -0.0014 H         1 ACP         0.0692
     42 HO2'       -0.1554   -0.9852    2.0577 H         1 ACP         0.4431
     43 H1'         1.7718    1.9211    1.6015 H         1 ACP         0.1199
     44 H8          0.6089    2.4651   -2.2147 H         1 ACP         0.2941
     45 HN61       -2.5055    5.6680   -1.4503 H         1 ACP         0.4754
     46 HN62       -3.3462    6.4841   -0.1542 H         1 ACP         0.4754
     47 H2         -1.5932    4.4937    3.7066 H         1 ACP         0.0886
     48 H48        -2.8098    5.8270    2.1160 H         1 ACP         0.4707
@<TRIPOS>BOND
     1    1    2 2
     2    1    3 1
     3    1    4 1
     4    1    8 1
     5    3   32 1
     6    4   33 1
     7    5    6 2
     8    5    7 1
     9    5    8 1
    10    5   12 1
    11    8   34 1
    12    8   35 1
    13    9   10 2
    14    9   11 1
    15    9   12 1
    16    9   13 1
    17   13   14 1
    18   14   15 1
    19   14   36 1
    20   14   37 1
    21   15   16 1
    22   15   17 1
    23   15   38 1
    24   16   21 1
    25   17   18 1
    26   17   19 1
    27   17   39 1
    28   18   40 1
    29   19   20 1
    30   19   21 1
    31   19   41 1
    32   20   42 1
    33   21   22 1
    34   21   43 1
    35   22   23 ar
    36   22   31 ar
    37   23   24 ar
    38   23   44 1
    39   24   25 ar
    40   25   26 ar
    41   25   31 ar
    42   26   27 1
    43   26   28 ar
    44   27   45 1
    45   27   46 1
    46   28   29 ar
    47   28   48 1
    48   29   30 ar
    49   29   47 1
    50   30   31 ar
@<TRIPOS>SUBSTRUCTURE
     1 ACP         1 GROUP 0 A     ****
@<TRIPOS>MOLECULE
[[5-(6-amino-1,8-dihydropurine-6,8-diylium-7-id-9-yl)-3,4-dihydroxy-tetrahydrofuran-2-yl]methoxy-oxido-phosphoryl]oxy-(phosphonomethyl)phosphinate
   48    50     1     0     0
SMALL
USER_CHARGES

@<TRIPOS>ATOM
      1 PG          5.2901   -3.8390   -4.6781 P.3       1 ACP         1.6558
      2 O1G         5.6780   -5.1699   -4.1075 O.2       1 ACP        -0.9020
      3 O2G         6.0971   -3.3905   -6.0039 O.3       1 ACP        -0.8036
      4 O3G         5.4673   -2.5798   -3.6818 O.3       1 ACP        -0.8036
      5 PB          2.8268   -2.1901   -5.9204 P.3       1 ACP         1.4945
      6 O1B         1.3731   -2.4839   -6.2102 O.co2     1 ACP        -0.8481
      7 O2B         3.7795   -1.7009   -6.9865 O.co2     1 ACP        -0.8481
      8 C3B         3.5600   -3.7214   -5.1865 C.3       1 ACP        -0.6636
      9 PA          2.7380    0.3741   -4.4295 P.3       1 ACP         1.6023
     10 O1A         1.2909    0.7114   -4.7172 O.co2     1 ACP        -0.8673
     11 O2A         3.8550    1.0763   -5.1705 O.co2     1 ACP        -0.8673
     12 O3A         2.9378   -1.2377   -4.6014 O.3       1 ACP        -0.8150
     13 O5'         3.0199    0.5139   -2.8245 O.3       1 ACP        -0.5522
     14 C5'         2.2816   -0.2918   -1.9206 C.3       1 ACP         0.2181
     15 C4'         2.7248    0.0226   -0.4980 C.3       1 ACP         0.0915
     16 O4'         2.4697    1.4219   -0.2462 O.3       1 ACP        -0.3675
     17 C3'         1.9404   -0.7419    0.5596 C.3       1 ACP         0.0748
     18 O3'         2.7418   -0.8086    1.7389 O.3       1 ACP        -0.5646
     19 C2'         0.7477    0.1630    0.7858 C.3       1 ACP         0.0804
     20 O2'         0.1373   -0.0577    2.0407 O.3       1 ACP        -0.5882
     21 C1'         1.3733    1.5427    0.6747 C.3       1 ACP         0.3809
     22 N9          0.4520    2.5240    0.1767 N.pl3     1 ACP        -0.4412
     23 C8          0.5793    3.3338   -1.1209 C.ar      1 ACP         0.1936
     24 N7         -0.4807    4.1508   -1.2458 N.2       1 ACP        -0.2746
     25 C5         -1.1921    3.8572   -0.1126 C.ar      1 ACP        -0.1386
     26 C6         -2.4855    4.5203    0.2163 C.ar      1 ACP         0.4778
     27 N6         -2.9873    5.4319   -0.6020 N.pl3     1 ACP        -0.8290
     28 N1         -3.0414    4.1119    1.3596 N.pl3     1 ACP        -0.6985
     29 C2         -2.4169    3.1071    2.1904 C.ar      1 ACP         0.6179
     30 N3         -1.2928    2.5191    1.9210 N.ar      1 ACP        -0.5105
     31 C4         -0.7202    2.9326    0.7534 C.ar      1 ACP         0.2753
     32 HOG2        7.0719   -3.2925   -5.9563 H         1 ACP         0.4487
     33 HOG3        6.3591   -2.3753   -3.3284 H         1 ACP         0.4487
     34 H3B1        3.3753   -4.5159   -5.9182 H         1 ACP         0.1088
     35 H3B2        2.9512   -3.9515   -4.3047 H         1 ACP         0.1088
     36 H5'1        1.2154   -0.0780   -2.0455 H         1 ACP         0.0327
     37 H5'2        2.4646   -1.3453   -2.1548 H         1 ACP         0.0327
     38 H4'         3.8046   -0.1390   -0.4011 H         1 ACP         0.1275
     39 H3'         1.6787   -1.7627    0.2719 H         1 ACP         0.0637
     40 HO3'        2.2231   -1.2979    2.3952 H         1 ACP         0.4127
     41 H2'         0.0002   -0.0084   -0.0014 H         1 ACP         0.0692
     42 HO2'       -0.1554   -0.9852    2.0577 H         1 ACP         0.4431
     43 H1'         1.7718    1.9211    1.6015 H         1 ACP         0.1199
     44 H8          1.3565    3.3309   -1.8916 H         1 ACP         0.2941
     45 HN61       -2.4952    5.6785   -1.4487 H         1 ACP         0.4754
     46 HN62       -3.8637    5.8828   -0.3819 H         1 ACP         0.4754
     47 H2         -2.9911    2.8734    3.1000 H         1 ACP         0.0886
     48 H48        -3.9253    4.5332    1.6302 H         1 ACP         0.4707
@<TRIPOS>BOND
     1    1    2 2
     2    1    3 1
     3    1    4 1
     4    1    8 1
     5    3   32 1
     6    4   33 1
     7    5    6 2
     8    5    7 1
     9    5    8 1
    10    5   12 1
    11    8   34 1
    12    8   35 1
    13    9   10 2
    14    9   11 1
    15    9   12 1
    16    9   13 1
    17   13   14 1
    18   14   15 1
    19   14   36 1
    20   14   37 1
    21   15   16 1
    22   15   17 1
    23   15   38 1
    24   16   21 1
    25   17   18 1
    26   17   19 1
    27   17   39 1
    28   18   40 1
    29   19   20 1
    30   19   21 1
    31   19   41 1
    32   20   42 1
    33   21   22 1
    34   21   43 1
    35   22   23 ar
    36   22   31 ar
    37   23   24 ar
    38   23   44 1
    39   24   25 ar
    40   25   26 ar
    41   25   31 ar
    42   26   27 1
    43   26   28 ar
    44   27   45 1
    45   27   46 1
    46   28   29 ar
    47   28   48 1
    48   29   30 ar
    49   29   47 1
    50   30   31 ar
@<TRIPOS>SUBSTRUCTURE
     1 ACP         1 GROUP 0 A     ****
@<TRIPOS>MOLECULE
[[5-(6-amino-1,8-dihydropurine-6,8-diylium-7-id-9-yl)-3,4-dihydroxy-tetrahydrofuran-2-yl]methoxy-oxido-phosphoryl]oxy-(phosphonomethyl)phosphinate
   48    50     1     0     0
SMALL
USER_CHARGES

@<TRIPOS>ATOM
      1 PG          1.2471   -4.0863   -5.2652 P.3       1 ACP         1.6558
      2 O1G         2.2322   -3.9610   -4.1421 O.2       1 ACP        -0.9020
      3 O2G         0.0556   -5.1512   -5.0277 O.3       1 ACP        -0.8036
      4 O3G         1.8715   -4.5266   -6.6885 O.3       1 ACP        -0.8036
      5 PB          1.2216   -1.0095   -6.1939 P.3       1 ACP         1.4945
      6 O1B         0.1546    0.0352   -6.4253 O.co2     1 ACP        -0.8481
      7 O2B         2.2203   -1.3934   -7.2610 O.co2     1 ACP        -0.8481
      8 C3B         0.3652   -2.5585   -5.6574 C.3       1 ACP        -0.6636
      9 PA          2.8587    0.6155   -4.3269 P.3       1 ACP         1.6023
     10 O1A         1.9171    1.7961   -4.2263 O.co2     1 ACP        -0.8673
     11 O2A         4.1093    0.6971   -5.1750 O.co2     1 ACP        -0.8673
     12 O3A         2.0007   -0.6924   -4.7968 O.3       1 ACP        -0.8150
     13 O5'         3.2885    0.1337   -2.8242 O.3       1 ACP        -0.5522
     14 C5'         2.2816   -0.2918   -1.9206 C.3       1 ACP         0.2181
     15 C4'         2.7248    0.0226   -0.4980 C.3       1 ACP         0.0915
     16 O4'         2.4697    1.4219   -0.2462 O.3       1 ACP        -0.3675
     17 C3'         1.9404   -0.7419    0.5596 C.3       1 ACP         0.0748
     18 O3'         2.7418   -0.8086    1.7389 O.3       1 ACP        -0.5646
     19 C2'         0.7477    0.1630    0.7858 C.3       1 ACP         0.0804
     20 O2'         0.1373   -0.0577    2.0407 O.3       1 ACP        -0.5882
     21 C1'         1.3733    1.5427    0.6747 C.3       1 ACP         0.3809
     22 N9          0.4520    2.5240    0.1767 N.pl3     1 ACP        -0.4412
     23 C8          0.5793    3.3338   -1.1209 C.ar      1 ACP         0.1936
     24 N7         -0.4807    4.1508   -1.2458 N.2       1 ACP        -0.2746
     25 C5         -1.1921    3.8572   -0.1126 C.ar      1 ACP        -0.1386
     26 C6         -2.4855    4.5203    0.2163 C.ar      1 ACP         0.4778
     27 N6         -2.9873    5.4319   -0.6020 N.pl3     1 ACP        -0.8290
     28 N1         -3.0414    4.1119    1.3596 N.pl3     1 ACP        -0.6985
     29 C2         -2.4169    3.1071    2.1904 C.ar      1 ACP         0.6179
     30 N3         -1.2928    2.5191    1.9210 N.ar      1 ACP        -0.5105
     31 C4         -0.7202    2.9326    0.7534 C.ar      1 ACP         0.2753
     32 HOG2        0.2835   -6.0934   -4.8776 H         1 ACP         0.4487
     33 HOG3        2.3386   -5.3864   -6.7569 H         1 ACP         0.4487
     34 H3B1       -0.3550   -2.7866   -6.4512 H         1 ACP         0.1088
     35 H3B2       -0.2150   -2.2869   -4.7682 H         1 ACP         0.1088
     36 H5'1        1.3501    0.2325   -2.1561 H         1 ACP         0.0327
     37 H5'2        2.1268   -1.3683   -2.0445 H         1 ACP         0.0327
     38 H4'         3.8046   -0.1390   -0.4011 H         1 ACP         0.1275
     39 H3'         1.6787   -1.7627    0.2719 H         1 ACP         0.0637
     40 HO3'        2.2231   -1.2979    2.3952 H         1 ACP         0.4127
     41 H2'         0.0002   -0.0084   -0.0014 H         1 ACP         0.0692
     42 HO2'       -0.1554   -0.9852    2.0577 H         1 ACP         0.4431
     43 H1'         1.7718    1.9211    1.6015 H         1 ACP         0.1199
     44 H8          1.3565    3.3309   -1.8916 H         1 ACP         0.2941
     45 HN61       -2.4952    5.6785   -1.4487 H         1 ACP         0.4754
     46 HN62       -3.8637    5.8828   -0.3819 H         1 ACP         0.4754
     47 H2         -2.9911    2.8734    3.1000 H         1 ACP         0.0886
     48 H48        -3.9253    4.5332    1.6302 H         1 ACP         0.4707
@<TRIPOS>BOND
     1    1    2 2
     2    1    3 1
     3    1    4 1
     4    1    8 1
     5    3   32 1
     6    4   33 1
     7    5    6 2
     8    5    7 1
     9    5    8 1
    10    5   12 1
    11    8   34 1
    12    8   35 1
    13    9   10 2
    14    9   11 1
    15    9   12 1
    16    9   13 1
    17   13   14 1
    18   14   15 1
    19   14   36 1
    20   14   37 1
    21   15   16 1
    22   15   17 1
    23   15   38 1
    24   16   21 1
    25   17   18 1
    26   17   19 1
    27   17   39 1
    28   18   40 1
    29   19   20 1
    30   19   21 1
    31   19   41 1
    32   20   42 1
    33   21   22 1
    34   21   43 1
    35   22   23 ar
    36   22   31 ar
    37   23   24 ar
    38   23   44 1
    39   24   25 ar
    40   25   26 ar
    41   25   31 ar
    42   26   27 1
    43   26   28 ar
    44   27   45 1
    45   27   46 1
    46   28   29 ar
    47   28   48 1
    48   29   30 ar
    49   29   47 1
    50   30   31 ar
@<TRIPOS>SUBSTRUCTURE
     1 ACP         1 GROUP 0 A     ****
@<TRIPOS>MOLECULE
[[5-(6-amino-1,8-dihydropurine-6,8-diylium-7-id-9-yl)-3,4-dihydroxy-tetrahydrofuran-2-yl]methoxy-oxido-phosphoryl]oxy-(phosphonomethyl)phosphinate
   48    50     1     0     0
SMALL
USER_CHARGES

@<TRIPOS>ATOM
      1 PG          7.1777   -1.6636   -0.3123 P.3       1 ACP         1.6558
      2 O1G         5.7819   -1.6729    0.2345 O.2       1 ACP        -0.9020
      3 O2G         7.8492   -3.1176   -0.5257 O.3       1 ACP        -0.8036
      4 O3G         8.2661   -0.8703    0.5797 O.3       1 ACP        -0.8036
      5 PB          6.4417   -1.5036   -3.4369 P.3       1 ACP         1.4945
      6 O1B         6.8826   -2.9300   -3.6703 O.co2     1 ACP        -0.8481
      7 O2B         6.5624   -0.4371   -4.5006 O.co2     1 ACP        -0.8481
      8 C3B         7.3365   -0.8914   -1.9384 C.3       1 ACP        -0.6636
      9 PA          3.5289   -2.0703   -3.4131 P.3       1 ACP         1.6023
     10 O1A         3.6276   -3.5779   -3.5025 O.co2     1 ACP        -0.8673
     11 O2A         3.1544   -1.2491   -4.6277 O.co2     1 ACP        -0.8673
     12 O3A         4.9348   -1.4941   -2.8138 O.3       1 ACP        -0.8150
     13 O5'         2.5238   -1.6632   -2.1888 O.3       1 ACP        -0.5522
     14 C5'         2.2816   -0.2918   -1.9206 C.3       1 ACP         0.2181
     15 C4'         2.7248    0.0226   -0.4980 C.3       1 ACP         0.0915
     16 O4'         2.4697    1.4219   -0.2462 O.3       1 ACP        -0.3675
     17 C3'         1.9404   -0.7419    0.5596 C.3       1 ACP         0.0748
     18 O3'         2.7418   -0.8086    1.7389 O.3       1 ACP        -0.5646
     19 C2'         0.7477    0.1630    0.7858 C.3       1 ACP         0.0804
     20 O2'         0.1373   -0.0577    2.0407 O.3       1 ACP        -0.5882
     21 C1'         1.3733    1.5427    0.6747 C.3       1 ACP         0.3809
     22 N9          0.4520    2.5240    0.1767 N.pl3     1 ACP        -0.4412
     23 C8          0.1798    2.8712   -1.2933 C.ar      1 ACP         0.1936
     24 N7         -0.7494    3.8400   -1.3610 N.2       1 ACP        -0.2746
     25 C5         -1.0173    4.0603   -0.0358 C.ar      1 ACP        -0.1386
     26 C6         -2.0105    5.0717    0.4241 C.ar      1 ACP         0.4778
     27 N6         -2.6723    5.7982   -0.4628 N.pl3     1 ACP        -0.8290
     28 N1         -2.1445    5.1522    1.7502 N.pl3     1 ACP        -0.6985
     29 C2         -1.3755    4.3143    2.6426 C.ar      1 ACP         0.6179
     30 N3         -0.5075    3.4292    2.2616 N.ar      1 ACP        -0.5105
     31 C4         -0.3667    3.3425    0.9070 C.ar      1 ACP         0.2753
     32 HOG2        7.9598   -3.7081    0.2496 H         1 ACP         0.4487
     33 HOG3        8.4314   -1.1648    1.5005 H         1 ACP         0.4487
     34 H3B1        7.0500    0.1612   -1.8343 H         1 ACP         0.1088
     35 H3B2        8.4011   -0.9085   -2.1979 H         1 ACP         0.1088
     36 H5'1        2.8430    0.3138   -2.6391 H         1 ACP         0.0327
     37 H5'2        1.2126   -0.0907   -2.0421 H         1 ACP         0.0327
     38 H4'         3.8046   -0.1390   -0.4011 H         1 ACP         0.1275
     39 H3'         1.6787   -1.7627    0.2719 H         1 ACP         0.0637
     40 HO3'        3.5553   -1.2733    1.4913 H         1 ACP         0.4127
     41 H2'         0.0002   -0.0084   -0.0014 H         1 ACP         0.0692
     42 HO2'       -0.1554   -0.9852    2.0577 H         1 ACP         0.4431
     43 H1'         1.7718    1.9211    1.6015 H         1 ACP         0.1199
     44 H8          0.6089    2.4651   -2.2147 H         1 ACP         0.2941
     45 HN61       -2.5055    5.6680   -1.4503 H         1 ACP         0.4754
     46 HN62       -3.3462    6.4841   -0.1542 H         1 ACP         0.4754
     47 H2         -1.5932    4.4937    3.7066 H         1 ACP         0.0886
     48 H48        -2.8098    5.8270    2.1160 H         1 ACP         0.4707
@<TRIPOS>BOND
     1    1    2 2
     2    1    3 1
     3    1    4 1
     4    1    8 1
     5    3   32 1
     6    4   33 1
     7    5    6 2
     8    5    7 1
     9    5    8 1
    10    5   12 1
    11    8   34 1
    12    8   35 1
    13    9   10 2
    14    9   11 1
    15    9   12 1
    16    9   13 1
    17   13   14 1
    18   14   15 1
    19   14   36 1
    20   14   37 1
    21   15   16 1
    22   15   17 1
    23   15   38 1
    24   16   21 1
    25   17   18 1
    26   17   19 1
    27   17   39 1
    28   18   40 1
    29   19   20 1
    30   19   21 1
    31   19   41 1
    32   20   42 1
    33   21   22 1
    34   21   43 1
    35   22   23 ar
    36   22   31 ar
    37   23   24 ar
    38   23   44 1
    39   24   25 ar
    40   25   26 ar
    41   25   31 ar
    42   26   27 1
    43   26   28 ar
    44   27   45 1
    45   27   46 1
    46   28   29 ar
    47   28   48 1
    48   29   30 ar
    49   29   47 1
    50   30   31 ar
@<TRIPOS>SUBSTRUCTURE
     1 ACP         1 GROUP 0 A     ****
@<TRIPOS>MOLECULE
[[5-(6-amino-1,8-dihydropurine-6,8-diylium-7-id-9-yl)-3,4-dihydroxy-tetrahydrofuran-2-yl]methoxy-oxido-phosphoryl]oxy-(phosphonomethyl)phosphinate
   48    50     1     0     0
SMALL
USER_CHARGES

@<TRIPOS>ATOM
      1 PG         -1.2913   -1.3415   -4.5787 P.3       1 ACP         1.6558
      2 O1G        -2.4794   -2.0680   -5.1336 O.2       1 ACP        -0.9020
      3 O2G         0.0425   -2.2338   -4.3913 O.3       1 ACP        -0.8036
      4 O3G        -1.5063   -0.6707   -3.1249 O.3       1 ACP        -0.8036
      5 PB          0.7207    1.1029   -5.1325 P.3       1 ACP         1.4945
      6 O1B         0.4053    1.7372   -3.7977 O.co2     1 ACP        -0.8481
      7 O2B         1.0836    1.9216   -6.3497 O.co2     1 ACP        -0.8481
      8 C3B        -0.7243    0.0436   -5.5914 C.3       1 ACP        -0.6636
      9 PA          3.3317   -0.0541   -4.3262 P.3       1 ACP         1.6023
     10 O1A         4.1267    0.9765   -5.0986 O.co2     1 ACP        -0.8673
     11 O2A         3.8308   -1.4772   -4.2013 O.co2     1 ACP        -0.8673
     12 O3A         1.8123   -0.0905   -4.9242 O.3       1 ACP        -0.8150
     13 O5'         3.0199    0.5139   -2.8245 O.3       1 ACP        -0.5522
     14 C5'         2.2816   -0.2918   -1.9206 C.3       1 ACP         0.2181
     15 C4'         2.7248    0.0226   -0.4980 C.3       1 ACP         0.0915
     16 O4'         2.4697    1.4219   -0.2462 O.3       1 ACP        -0.3675
     17 C3'         1.9404   -0.7419    0.5596 C.3       1 ACP         0.0748
     18 O3'         2.7418   -0.8086    1.7389 O.3       1 ACP        -0.5646
     19 C2'         0.7477    0.1630    0.7858 C.3       1 ACP         0.0804
     20 O2'         0.1373   -0.0577    2.0407 O.3       1 ACP        -0.5882
     21 C1'         1.3733    1.5427    0.6747 C.3       1 ACP         0.3809
     22 N9          0.4520    2.5240    0.1767 N.pl3     1 ACP        -0.4412
     23 C8          0.5793    3.3338   -1.1209 C.ar      1 ACP         0.1936
     24 N7         -0.4807    4.1508   -1.2458 N.2       1 ACP        -0.2746
     25 C5         -1.1921    3.8572   -0.1126 C.ar      1 ACP        -0.1386
     26 C6         -2.4855    4.5203    0.2163 C.ar      1 ACP         0.4778
     27 N6         -2.9873    5.4319   -0.6020 N.pl3     1 ACP        -0.8290
     28 N1         -3.0414    4.1119    1.3596 N.pl3     1 ACP        -0.6985
     29 C2         -2.4169    3.1071    2.1904 C.ar      1 ACP         0.6179
     30 N3         -1.2928    2.5191    1.9210 N.ar      1 ACP        -0.5105
     31 C4         -0.7202    2.9326    0.7534 C.ar      1 ACP         0.2753
     32 HOG2        0.0121   -3.0150   -3.7991 H         1 ACP         0.4487
     33 HOG3       -1.7408   -1.2462   -2.3660 H         1 ACP         0.4487
     34 H3B1       -0.4973   -0.3474   -6.5896 H         1 ACP         0.1088
     35 H3B2       -1.5735    0.7276   -5.7018 H         1 ACP         0.1088
     36 H5'1        1.2154   -0.0780   -2.0455 H         1 ACP         0.0327
     37 H5'2        2.4646   -1.3453   -2.1548 H         1 ACP         0.0327
     38 H4'         3.8046   -0.1390   -0.4011 H         1 ACP         0.1275
     39 H3'         1.6787   -1.7627    0.2719 H         1 ACP         0.0637
     40 HO3'        2.2231   -1.2979    2.3952 H         1 ACP         0.4127
     41 H2'         0.0002   -0.0084   -0.0014 H         1 ACP         0.0692
     42 HO2'       -0.1554   -0.9852    2.0577 H         1 ACP         0.4431
     43 H1'         1.7718    1.9211    1.6015 H         1 ACP         0.1199
     44 H8          1.3565    3.3309   -1.8916 H         1 ACP         0.2941
     45 HN61       -2.4952    5.6785   -1.4487 H         1 ACP         0.4754
     46 HN62       -3.8637    5.8828   -0.3819 H         1 ACP         0.4754
     47 H2         -2.9911    2.8734    3.1000 H         1 ACP         0.0886
     48 H48        -3.9253    4.5332    1.6302 H         1 ACP         0.4707
@<TRIPOS>BOND
     1    1    2 2
     2    1    3 1
     3    1    4 1
     4    1    8 1
     5    3   32 1
     6    4   33 1
     7    5    6 2
     8    5    7 1
     9    5    8 1
    10    5   12 1
    11    8   34 1
    12    8   35 1
    13    9   10 2
    14    9   11 1
    15    9   12 1
    16    9   13 1
    17   13   14 1
    18   14   15 1
    19   14   36 1
    20   14   37 1
    21   15   16 1
    22   15   17 1
    23   15   38 1
    24   16   21 1
    25   17   18 1
    26   17   19 1
    27   17   39 1
    28   18   40 1
    29   19   20 1
    30   19   21 1
    31   19   41 1
    32   20   42 1
    33   21   22 1
    34   21   43 1
    35   22   23 ar
    36   22   31 ar
    37   23   24 ar
    38   23   44 1
    39   24   25 ar
    40   25   26 ar
    41   25   31 ar
    42   26   27 1
    43   26   28 ar
    44   27   45 1
    45   27   46 1
    46   28   29 ar
    47   28   48 1
    48   29   30 ar
    49   29   47 1
    50   30   31 ar
@<TRIPOS>SUBSTRUCTURE
     1 ACP         1 GROUP 0 A     ****
@<TRIPOS>MOLECULE
[[5-(6-amino-1,8-dihydropurine-6,8-diylium-7-id-9-yl)-3,4-dihydroxy-tetrahydrofuran-2-yl]methoxy-oxido-phosphoryl]oxy-(phosphonomethyl)phosphinate
   48    50     1     0     0
SMALL
USER_CHARGES

@<TRIPOS>ATOM
      1 PG          6.3333   -0.2081   -6.2315 P.3       1 ACP         1.6558
      2 O1G         6.1699    0.5576   -4.9531 O.2       1 ACP        -0.9020
      3 O2G         7.2160   -1.5571   -6.1246 O.3       1 ACP        -0.8036
      4 O3G         7.0280    0.6050   -7.4422 O.3       1 ACP        -0.8036
      5 PB          3.6212   -1.9264   -6.0829 P.3       1 ACP         1.4945
      6 O1B         4.3794   -3.2011   -5.7935 O.co2     1 ACP        -0.8481
      7 O2B         2.3184   -1.9183   -6.8487 O.co2     1 ACP        -0.8481
      8 C3B         4.7827   -0.7843   -6.9590 C.3       1 ACP        -0.6636
      9 PA          2.7380    0.3741   -4.4295 P.3       1 ACP         1.6023
     10 O1A         1.2513    0.2198   -4.6674 O.co2     1 ACP        -0.8673
     11 O2A         3.5254    1.4501   -5.1452 O.co2     1 ACP        -0.8673
     12 O3A         3.4589   -1.0647   -4.7080 O.3       1 ACP        -0.8150
     13 O5'         3.0199    0.5139   -2.8245 O.3       1 ACP        -0.5522
     14 C5'         2.2816   -0.2918   -1.9206 C.3       1 ACP         0.2181
     15 C4'         2.7248    0.0226   -0.4980 C.3       1 ACP         0.0915
     16 O4'         2.4697    1.4219   -0.2462 O.3       1 ACP        -0.3675
     17 C3'         1.9404   -0.7419    0.5596 C.3       1 ACP         0.0748
     18 O3'         2.7418   -0.8086    1.7389 O.3       1 ACP        -0.5646
     19 C2'         0.7477    0.1630    0.7858 C.3       1 ACP         0.0804
     20 O2'         0.1373   -0.0577    2.0407 O.3       1 ACP        -0.5882
     21 C1'         1.3733    1.5427    0.6747 C.3       1 ACP         0.3809
     22 N9          0.4520    2.5240    0.1767 N.pl3     1 ACP        -0.4412
     23 C8          0.1798    2.8712   -1.2933 C.ar      1 ACP         0.1936
     24 N7         -0.7494    3.8400   -1.3610 N.2       1 ACP        -0.2746
     25 C5         -1.0173    4.0603   -0.0358 C.ar      1 ACP        -0.1386
     26 C6         -2.0105    5.0717    0.4241 C.ar      1 ACP         0.4778
     27 N6         -2.6723    5.7982   -0.4628 N.pl3     1 ACP        -0.8290
     28 N1         -2.1445    5.1522    1.7502 N.pl3     1 ACP        -0.6985
     29 C2         -1.3755    4.3143    2.6426 C.ar      1 ACP         0.6179
     30 N3         -0.5075    3.4292    2.2616 N.ar      1 ACP        -0.5105
     31 C4         -0.3667    3.3425    0.9070 C.ar      1 ACP         0.2753
     32 HOG2        8.1490   -1.4921   -5.8292 H         1 ACP         0.4487
     33 HOG3        7.9362    0.9548   -7.3202 H         1 ACP         0.4487
     34 H3B1        4.1884    0.1002   -7.2149 H         1 ACP         0.1088
     35 H3B2        5.0372   -1.2819   -7.9017 H         1 ACP         0.1088
     36 H5'1        1.2154   -0.0780   -2.0455 H         1 ACP         0.0327
     37 H5'2        2.4646   -1.3453   -2.1548 H         1 ACP         0.0327
     38 H4'         3.8046   -0.1390   -0.4011 H         1 ACP         0.1275
     39 H3'         1.6787   -1.7627    0.2719 H         1 ACP         0.0637
     40 HO3'        2.2231   -1.2979    2.3952 H         1 ACP         0.4127
     41 H2'         0.0002   -0.0084   -0.0014 H         1 ACP         0.0692
     42 HO2'       -0.6132    0.5577    2.1063 H         1 ACP         0.4431
     43 H1'         1.7718    1.9211    1.6015 H         1 ACP         0.1199
     44 H8          0.6089    2.4651   -2.2147 H         1 ACP         0.2941
     45 HN61       -2.5055    5.6680   -1.4503 H         1 ACP         0.4754
     46 HN62       -3.3462    6.4841   -0.1542 H         1 ACP         0.4754
     47 H2         -1.5932    4.4937    3.7066 H         1 ACP         0.0886
     48 H48        -2.8098    5.8270    2.1160 H         1 ACP         0.4707
@<TRIPOS>BOND
     1    1    2 2
     2    1    3 1
     3    1    4 1
     4    1    8 1
     5    3   32 1
     6    4   33 1
     7    5    6 2
     8    5    7 1
     9    5    8 1
    10    5   12 1
    11    8   34 1
    12    8   35 1
    13    9   10 2
    14    9   11 1
    15    9   12 1
    16    9   13 1
    17   13   14 1
    18   14   15 1
    19   14   36 1
    20   14   37 1
    21   15   16 1
    22   15   17 1
    23   15   38 1
    24   16   21 1
    25   17   18 1
    26   17   19 1
    27   17   39 1
    28   18   40 1
    29   19   20 1
    30   19   21 1
    31   19   41 1
    32   20   42 1
    33   21   22 1
    34   21   43 1
    35   22   23 ar
    36   22   31 ar
    37   23   24 ar
    38   23   44 1
    39   24   25 ar
    40   25   26 ar
    41   25   31 ar
    42   26   27 1
    43   26   28 ar
    44   27   45 1
    45   27   46 1
    46   28   29 ar
    47   28   48 1
    48   29   30 ar
    49   29   47 1
    50   30   31 ar
@<TRIPOS>SUBSTRUCTURE
     1 ACP         1 GROUP 0 A     ****
@<TRIPOS>MOLECULE
[[5-(6-amino-1,8-dihydropurine-6,8-diylium-7-id-9-yl)-3,4-dihydroxy-tetrahydrofuran-2-yl]methoxy-oxido-phosphoryl]oxy-(phosphonomethyl)phosphinate
   48    50     1     0     0
SMALL
USER_CHARGES

@<TRIPOS>ATOM
      1 PG         -0.4917   -2.3331   -7.1591 P.3       1 ACP         1.6558
      2 O1G        -0.2985   -3.7587   -7.5806 O.2       1 ACP        -0.9020
      3 O2G        -1.6013   -1.5069   -7.9937 O.3       1 ACP        -0.8036
      4 O3G         0.8236   -1.3996   -7.2492 O.3       1 ACP        -0.8036
      5 PB         -0.0341   -2.7256   -4.0021 P.3       1 ACP         1.4945
      6 O1B         0.1230   -4.2208   -4.1548 O.co2     1 ACP        -0.8481
      7 O2B        -0.6236   -2.0986   -2.7600 O.co2     1 ACP        -0.8481
      8 C3B        -1.0254   -2.1282   -5.4448 C.3       1 ACP        -0.6636
      9 PA          2.8590   -2.1285   -3.7205 P.3       1 ACP         1.6023
     10 O1A         3.7684   -1.1070   -4.3687 O.co2     1 ACP        -0.8673
     11 O2A         3.2371   -3.5936   -3.6994 O.co2     1 ACP        -0.8673
     12 O3A         1.3710   -1.9888   -4.3790 O.3       1 ACP        -0.8150
     13 O5'         2.5238   -1.6632   -2.1888 O.3       1 ACP        -0.5522
     14 C5'         2.2816   -0.2918   -1.9206 C.3       1 ACP         0.2181
     15 C4'         2.7248    0.0226   -0.4980 C.3       1 ACP         0.0915
     16 O4'         2.4697    1.4219   -0.2462 O.3       1 ACP        -0.3675
     17 C3'         1.9404   -0.7419    0.5596 C.3       1 ACP         0.0748
     18 O3'         2.7418   -0.8086    1.7389 O.3       1 ACP        -0.5646
     19 C2'         0.7477    0.1630    0.7858 C.3       1 ACP         0.0804
     20 O2'         0.1373   -0.0577    2.0407 O.3       1 ACP        -0.5882
     21 C1'         1.3733    1.5427    0.6747 C.3       1 ACP         0.3809
     22 N9          0.4520    2.5240    0.1767 N.pl3     1 ACP        -0.4412
     23 C8          0.1798    2.8712   -1.2933 C.ar      1 ACP         0.1936
     24 N7         -0.7494    3.8400   -1.3610 N.2       1 ACP        -0.2746
     25 C5         -1.0173    4.0603   -0.0358 C.ar      1 ACP        -0.1386
     26 C6         -2.0105    5.0717    0.4241 C.ar      1 ACP         0.4778
     27 N6         -2.6723    5.7982   -0.4628 N.pl3     1 ACP        -0.8290
     28 N1         -2.1445    5.1522    1.7502 N.pl3     1 ACP        -0.6985
     29 C2         -1.3755    4.3143    2.6426 C.ar      1 ACP         0.6179
     30 N3         -0.5075    3.4292    2.2616 N.ar      1 ACP        -0.5105
     31 C4         -0.3667    3.3425    0.9070 C.ar      1 ACP         0.2753
     32 HOG2       -1.4839   -1.3978   -8.9614 H         1 ACP         0.4487
     33 HOG3        1.2603   -1.2765   -8.1188 H         1 ACP         0.4487
     34 H3B1       -1.1802   -1.0572   -5.2721 H         1 ACP         0.1088
     35 H3B2       -2.0051   -2.6110   -5.3550 H         1 ACP         0.1088
     36 H5'1        2.8430    0.3138   -2.6391 H         1 ACP         0.0327
     37 H5'2        1.2126   -0.0907   -2.0421 H         1 ACP         0.0327
     38 H4'         3.8046   -0.1390   -0.4011 H         1 ACP         0.1275
     39 H3'         1.6787   -1.7627    0.2719 H         1 ACP         0.0637
     40 HO3'        2.2231   -1.2979    2.3952 H         1 ACP         0.4127
     41 H2'         0.0002   -0.0084   -0.0014 H         1 ACP         0.0692
     42 HO2'       -0.6132    0.5577    2.1063 H         1 ACP         0.4431
     43 H1'         1.7718    1.9211    1.6015 H         1 ACP         0.1199
     44 H8          0.6089    2.4651   -2.2147 H         1 ACP         0.2941
     45 HN61       -2.5055    5.6680   -1.4503 H         1 ACP         0.4754
     46 HN62       -3.3462    6.4841   -0.1542 H         1 ACP         0.4754
     47 H2         -1.5932    4.4937    3.7066 H         1 ACP         0.0886
     48 H48        -2.8098    5.8270    2.1160 H         1 ACP         0.4707
@<TRIPOS>BOND
     1    1    2 2
     2    1    3 1
     3    1    4 1
     4    1    8 1
     5    3   32 1
     6    4   33 1
     7    5    6 2
     8    5    7 1
     9    5    8 1
    10    5   12 1
    11    8   34 1
    12    8   35 1
    13    9   10 2
    14    9   11 1
    15    9   12 1
    16    9   13 1
    17   13   14 1
    18   14   15 1
    19   14   36 1
    20   14   37 1
    21   15   16 1
    22   15   17 1
    23   15   38 1
    24   16   21 1
    25   17   18 1
    26   17   19 1
    27   17   39 1
    28   18   40 1
    29   19   20 1
    30   19   21 1
    31   19   41 1
    32   20   42 1
    33   21   22 1
    34   21   43 1
    35   22   23 ar
    36   22   31 ar
    37   23   24 ar
    38   23   44 1
    39   24   25 ar
    40   25   26 ar
    41   25   31 ar
    42   26   27 1
    43   26   28 ar
    44   27   45 1
    45   27   46 1
    46   28   29 ar
    47   28   48 1
    48   29   30 ar
    49   29   47 1
    50   30   31 ar
@<TRIPOS>SUBSTRUCTURE
     1 ACP         1 GROUP 0 A     ****
@<TRIPOS>MOLECULE
[[5-(6-amino-1,8-dihydropurine-6,8-diylium-7-id-9-yl)-3,4-dihydroxy-tetrahydrofuran-2-yl]methoxy-oxido-phosphoryl]oxy-(phosphonomethyl)phosphinate
   48    50     1     0     0
SMALL
USER_CHARGES

@<TRIPOS>ATOM
      1 PG         -1.2913   -1.3415   -4.5787 P.3       1 ACP         1.6558
      2 O1G        -0.2674   -2.4169   -4.3724 O.2       1 ACP        -0.9020
      3 O2G        -1.8238   -0.6230   -3.2331 O.3       1 ACP        -0.8036
      4 O3G        -2.6476   -1.8094   -5.3212 O.3       1 ACP        -0.8036
      5 PB          0.7207    1.1029   -5.1325 P.3       1 ACP         1.4945
      6 O1B         0.4053    1.7372   -3.7977 O.co2     1 ACP        -0.8481
      7 O2B         1.0836    1.9216   -6.3497 O.co2     1 ACP        -0.8481
      8 C3B        -0.7243    0.0436   -5.5914 C.3       1 ACP        -0.6636
      9 PA          3.3317   -0.0541   -4.3262 P.3       1 ACP         1.6023
     10 O1A         4.1267    0.9765   -5.0986 O.co2     1 ACP        -0.8673
     11 O2A         3.8308   -1.4772   -4.2013 O.co2     1 ACP        -0.8673
     12 O3A         1.8123   -0.0905   -4.9242 O.3       1 ACP        -0.8150
     13 O5'         3.0199    0.5139   -2.8245 O.3       1 ACP        -0.5522
     14 C5'         2.2816   -0.2918   -1.9206 C.3       1 ACP         0.2181
     15 C4'         2.7248    0.0226   -0.4980 C.3       1 ACP         0.0915
     16 O4'         2.4697    1.4219   -0.2462 O.3       1 ACP        -0.3675
     17 C3'         1.9404   -0.7419    0.5596 C.3       1 ACP         0.0748
     18 O3'         2.7418   -0.8086    1.7389 O.3       1 ACP        -0.5646
     19 C2'         0.7477    0.1630    0.7858 C.3       1 ACP         0.0804
     20 O2'         0.1373   -0.0577    2.0407 O.3       1 ACP        -0.5882
     21 C1'         1.3733    1.5427    0.6747 C.3       1 ACP         0.3809
     22 N9          0.4520    2.5240    0.1767 N.pl3     1 ACP        -0.4412
     23 C8         -1.0660    2.5608    0.3999 C.ar      1 ACP         0.1936
     24 N7         -1.5852    3.6333   -0.2221 N.2       1 ACP        -0.2746
     25 C5         -0.4682    4.1996   -0.7771 C.ar      1 ACP        -0.1386
     26 C6         -0.5216    5.4476   -1.5899 C.ar      1 ACP         0.4778
     27 N6         -1.6813    6.0510   -1.7982 N.pl3     1 ACP        -0.8290
     28 N1          0.6621    5.8575   -2.0523 N.pl3     1 ACP        -0.6985
     29 C2          1.8795    5.1301   -1.7717 C.ar      1 ACP         0.6179
     30 N3          1.9458    4.0434   -1.0670 N.ar      1 ACP        -0.5105
     31 C4          0.7388    3.6199   -0.5917 C.ar      1 ACP         0.2753
     32 HOG2       -2.2651   -1.1673   -2.5467 H         1 ACP         0.4487
     33 HOG3       -3.1971   -2.5099   -4.9098 H         1 ACP         0.4487
     34 H3B1       -0.4973   -0.3474   -6.5896 H         1 ACP         0.1088
     35 H3B2       -1.5735    0.7276   -5.7018 H         1 ACP         0.1088
     36 H5'1        1.2154   -0.0780   -2.0455 H         1 ACP         0.0327
     37 H5'2        2.4646   -1.3453   -2.1548 H         1 ACP         0.0327
     38 H4'         3.8046   -0.1390   -0.4011 H         1 ACP         0.1275
     39 H3'         1.6787   -1.7627    0.2719 H         1 ACP         0.0637
     40 HO3'        2.2231   -1.2979    2.3952 H         1 ACP         0.4127
     41 H2'         0.0002   -0.0084   -0.0014 H         1 ACP         0.0692
     42 HO2'       -0.1554   -0.9852    2.0577 H         1 ACP         0.4431
     43 H1'         1.7718    1.9211    1.6015 H         1 ACP         0.1199
     44 H8         -1.7235    1.8833    0.9537 H         1 ACP         0.2941
     45 HN61       -2.5296    5.6672   -1.4072 H         1 ACP         0.4754
     46 HN62       -1.7205    6.8969   -2.3483 H         1 ACP         0.4754
     47 H2          2.7750    5.5878   -2.2190 H         1 ACP         0.0886
     48 H48         0.6808    6.7046   -2.6128 H         1 ACP         0.4707
@<TRIPOS>BOND
     1    1    2 2
     2    1    3 1
     3    1    4 1
     4    1    8 1
     5    3   32 1
     6    4   33 1
     7    5    6 2
     8    5    7 1
     9    5    8 1
    10    5   12 1
    11    8   34 1
    12    8   35 1
    13    9   10 2
    14    9   11 1
    15    9   12 1
    16    9   13 1
    17   13   14 1
    18   14   15 1
    19   14   36 1
    20   14   37 1
    21   15   16 1
    22   15   17 1
    23   15   38 1
    24   16   21 1
    25   17   18 1
    26   17   19 1
    27   17   39 1
    28   18   40 1
    29   19   20 1
    30   19   21 1
    31   19   41 1
    32   20   42 1
    33   21   22 1
    34   21   43 1
    35   22   23 ar
    36   22   31 ar
    37   23   24 ar
    38   23   44 1
    39   24   25 ar
    40   25   26 ar
    41   25   31 ar
    42   26   27 1
    43   26   28 ar
    44   27   45 1
    45   27   46 1
    46   28   29 ar
    47   28   48 1
    48   29   30 ar
    49   29   47 1
    50   30   31 ar
@<TRIPOS>SUBSTRUCTURE
     1 ACP         1 GROUP 0 A     ****
@<TRIPOS>MOLECULE
[[5-(6-amino-1,8-dihydropurine-6,8-diylium-7-id-9-yl)-3,4-dihydroxy-tetrahydrofuran-2-yl]methoxy-oxido-phosphoryl]oxy-(phosphonomethyl)phosphinate
   48    50     1     0     0
SMALL
USER_CHARGES

@<TRIPOS>ATOM
      1 PG          2.6587    2.5453   -7.4978 P.3       1 ACP         1.6558
      2 O1G         2.7487    1.0620   -7.6949 O.2       1 ACP        -0.9020
      3 O2G         1.2670    3.2236   -7.9594 O.3       1 ACP        -0.8036
      4 O3G         3.7795    3.4161   -8.2694 O.3       1 ACP        -0.8036
      5 PB          1.6835    2.5394   -4.4353 P.3       1 ACP         1.4945
      6 O1B         0.2956    2.9982   -4.8187 O.co2     1 ACP        -0.8481
      7 O2B         2.3231    2.9156   -3.1189 O.co2     1 ACP        -0.8481
      8 C3B         2.8313    3.0812   -5.7806 C.3       1 ACP        -0.6636
      9 PA          3.0640   -0.0874   -4.4291 P.3       1 ACP         1.6023
     10 O1A         4.2648    0.4427   -5.1825 O.co2     1 ACP        -0.8673
     11 O2A         2.5794   -1.5038   -4.6499 O.co2     1 ACP        -0.8673
     12 O3A         1.8101    0.9308   -4.6711 O.3       1 ACP        -0.8150
     13 O5'         3.2885    0.1337   -2.8242 O.3       1 ACP        -0.5522
     14 C5'         2.2816   -0.2918   -1.9206 C.3       1 ACP         0.2181
     15 C4'         2.7248    0.0226   -0.4980 C.3       1 ACP         0.0915
     16 O4'         2.4697    1.4219   -0.2462 O.3       1 ACP        -0.3675
     17 C3'         1.9404   -0.7419    0.5596 C.3       1 ACP         0.0748
     18 O3'         2.7418   -0.8086    1.7389 O.3       1 ACP        -0.5646
     19 C2'         0.7477    0.1630    0.7858 C.3       1 ACP         0.0804
     20 O2'         0.1373   -0.0577    2.0407 O.3       1 ACP        -0.5882
     21 C1'         1.3733    1.5427    0.6747 C.3       1 ACP         0.3809
     22 N9          0.4520    2.5240    0.1767 N.pl3     1 ACP        -0.4412
     23 C8         -0.3054    2.4845   -1.1576 C.ar      1 ACP         0.1936
     24 N7         -1.0755    3.5806   -1.2691 N.2       1 ACP        -0.2746
     25 C5         -0.8043    4.2306   -0.0942 C.ar      1 ACP        -0.1386
     26 C6         -1.4324    5.5335    0.2646 C.ar      1 ACP         0.4778
     27 N6         -2.2885    6.1054   -0.5675 N.pl3     1 ACP        -0.8290
     28 N1         -1.0537    6.0229    1.4478 N.pl3     1 ACP        -0.6985
     29 C2         -0.1096    5.3242    2.2908 C.ar      1 ACP         0.6179
     30 N3          0.4468    4.1904    1.9960 N.ar      1 ACP        -0.5105
     31 C4          0.0631    3.6855    0.7877 C.ar      1 ACP         0.2753
     32 HOG2        0.9885    3.1459   -8.8967 H         1 ACP         0.4487
     33 HOG3        3.8319    3.3635   -9.2474 H         1 ACP         0.4487
     34 H3B1        3.8344    2.7959   -5.4441 H         1 ACP         0.1088
     35 H3B2        2.7944    4.1765   -5.7822 H         1 ACP         0.1088
     36 H5'1        1.3501    0.2325   -2.1561 H         1 ACP         0.0327
     37 H5'2        2.1268   -1.3683   -2.0445 H         1 ACP         0.0327
     38 H4'         3.8046   -0.1390   -0.4011 H         1 ACP         0.1275
     39 H3'         1.6787   -1.7627    0.2719 H         1 ACP         0.0637
     40 HO3'        2.2231   -1.2979    2.3952 H         1 ACP         0.4127
     41 H2'         0.0002   -0.0084   -0.0014 H         1 ACP         0.0692
     42 HO2'       -0.6132    0.5577    2.1063 H         1 ACP         0.4431
     43 H1'         1.7718    1.9211    1.6015 H         1 ACP         0.1199
     44 H8         -0.2991    1.7413   -1.9611 H         1 ACP         0.2941
     45 HN61       -2.5167    5.6603   -1.4447 H         1 ACP         0.4754
     46 HN62       -2.7159    6.9882   -0.3270 H         1 ACP         0.4754
     47 H2          0.1059    5.8491    3.2340 H         1 ACP         0.0886
     48 H48        -1.4532    6.9099    1.7401 H         1 ACP         0.4707
@<TRIPOS>BOND
     1    1    2 2
     2    1    3 1
     3    1    4 1
     4    1    8 1
     5    3   32 1
     6    4   33 1
     7    5    6 2
     8    5    7 1
     9    5    8 1
    10    5   12 1
    11    8   34 1
    12    8   35 1
    13    9   10 2
    14    9   11 1
    15    9   12 1
    16    9   13 1
    17   13   14 1
    18   14   15 1
    19   14   36 1
    20   14   37 1
    21   15   16 1
    22   15   17 1
    23   15   38 1
    24   16   21 1
    25   17   18 1
    26   17   19 1
    27   17   39 1
    28   18   40 1
    29   19   20 1
    30   19   21 1
    31   19   41 1
    32   20   42 1
    33   21   22 1
    34   21   43 1
    35   22   23 ar
    36   22   31 ar
    37   23   24 ar
    38   23   44 1
    39   24   25 ar
    40   25   26 ar
    41   25   31 ar
    42   26   27 1
    43   26   28 ar
    44   27   45 1
    45   27   46 1
    46   28   29 ar
    47   28   48 1
    48   29   30 ar
    49   29   47 1
    50   30   31 ar
@<TRIPOS>SUBSTRUCTURE
     1 ACP         1 GROUP 0 A     ****
@<TRIPOS>MOLECULE
[[5-(6-amino-1,8-dihydropurine-6,8-diylium-7-id-9-yl)-3,4-dihydroxy-tetrahydrofuran-2-yl]methoxy-oxido-phosphoryl]oxy-(phosphonomethyl)phosphinate
   48    50     1     0     0
SMALL
USER_CHARGES

@<TRIPOS>ATOM
      1 PG          2.1840   -4.2037   -4.2915 P.3       1 ACP         1.6558
      2 O1G         2.0877   -5.6653   -4.6101 O.2       1 ACP        -0.9020
      3 O2G         3.2689   -3.8098   -3.1610 O.3       1 ACP        -0.8036
      4 O3G         0.8198   -3.5183   -3.7633 O.3       1 ACP        -0.8036
      5 PB          2.8391   -1.3282   -5.5693 P.3       1 ACP         1.4945
      6 O1B         1.5042   -0.7694   -5.1345 O.co2     1 ACP        -0.8481
      7 O2B         3.5397   -0.8611   -6.8241 O.co2     1 ACP        -0.8481
      8 C3B         2.6508   -3.1640   -5.6939 C.3       1 ACP        -0.6636
      9 PA          4.4356   -0.0486   -3.4198 P.3       1 ACP         1.6023
     10 O1A         5.0324    0.9810   -4.3549 O.co2     1 ACP        -0.8673
     11 O2A         5.2456   -0.6069   -2.2700 O.co2     1 ACP        -0.8673
     12 O3A         3.8781   -1.2974   -4.3128 O.3       1 ACP        -0.8150
     13 O5'         3.0199    0.5139   -2.8245 O.3       1 ACP        -0.5522
     14 C5'         2.2816   -0.2918   -1.9206 C.3       1 ACP         0.2181
     15 C4'         2.7248    0.0226   -0.4980 C.3       1 ACP         0.0915
     16 O4'         2.4697    1.4219   -0.2462 O.3       1 ACP        -0.3675
     17 C3'         1.9404   -0.7419    0.5596 C.3       1 ACP         0.0748
     18 O3'         2.7418   -0.8086    1.7389 O.3       1 ACP        -0.5646
     19 C2'         0.7477    0.1630    0.7858 C.3       1 ACP         0.0804
     20 O2'         0.1373   -0.0577    2.0407 O.3       1 ACP        -0.5882
     21 C1'         1.3733    1.5427    0.6747 C.3       1 ACP         0.3809
     22 N9          0.4520    2.5240    0.1767 N.pl3     1 ACP        -0.4412
     23 C8          0.1798    2.8712   -1.2933 C.ar      1 ACP         0.1936
     24 N7         -0.7494    3.8400   -1.3610 N.2       1 ACP        -0.2746
     25 C5         -1.0173    4.0603   -0.0358 C.ar      1 ACP        -0.1386
     26 C6         -2.0105    5.0717    0.4241 C.ar      1 ACP         0.4778
     27 N6         -2.6723    5.7982   -0.4628 N.pl3     1 ACP        -0.8290
     28 N1         -2.1445    5.1522    1.7502 N.pl3     1 ACP        -0.6985
     29 C2         -1.3755    4.3143    2.6426 C.ar      1 ACP         0.6179
     30 N3         -0.5075    3.4292    2.2616 N.ar      1 ACP        -0.5105
     31 C4         -0.3667    3.3425    0.9070 C.ar      1 ACP         0.2753
     32 HOG2        3.1757   -4.1880   -2.2608 H         1 ACP         0.4487
     33 HOG3        0.4041   -3.8583   -2.9425 H         1 ACP         0.4487
     34 H3B1        3.6098   -3.5329   -6.0747 H         1 ACP         0.1088
     35 H3B2        1.9074   -3.3356   -6.4806 H         1 ACP         0.1088
     36 H5'1        1.2154   -0.0780   -2.0455 H         1 ACP         0.0327
     37 H5'2        2.4646   -1.3453   -2.1548 H         1 ACP         0.0327
     38 H4'         3.8046   -0.1390   -0.4011 H         1 ACP         0.1275
     39 H3'         1.6787   -1.7627    0.2719 H         1 ACP         0.0637
     40 HO3'        2.2231   -1.2979    2.3952 H         1 ACP         0.4127
     41 H2'         0.0002   -0.0084   -0.0014 H         1 ACP         0.0692
     42 HO2'       -0.6132    0.5577    2.1063 H         1 ACP         0.4431
     43 H1'         1.7718    1.9211    1.6015 H         1 ACP         0.1199
     44 H8          0.6089    2.4651   -2.2147 H         1 ACP         0.2941
     45 HN61       -2.5055    5.6680   -1.4503 H         1 ACP         0.4754
     46 HN62       -3.3462    6.4841   -0.1542 H         1 ACP         0.4754
     47 H2         -1.5932    4.4937    3.7066 H         1 ACP         0.0886
     48 H48        -2.8098    5.8270    2.1160 H         1 ACP         0.4707
@<TRIPOS>BOND
     1    1    2 2
     2    1    3 1
     3    1    4 1
     4    1    8 1
     5    3   32 1
     6    4   33 1
     7    5    6 2
     8    5    7 1
     9    5    8 1
    10    5   12 1
    11    8   34 1
    12    8   35 1
    13    9   10 2
    14    9   11 1
    15    9   12 1
    16    9   13 1
    17   13   14 1
    18   14   15 1
    19   14   36 1
    20   14   37 1
    21   15   16 1
    22   15   17 1
    23   15   38 1
    24   16   21 1
    25   17   18 1
    26   17   19 1
    27   17   39 1
    28   18   40 1
    29   19   20 1
    30   19   21 1
    31   19   41 1
    32   20   42 1
    33   21   22 1
    34   21   43 1
    35   22   23 ar
    36   22   31 ar
    37   23   24 ar
    38   23   44 1
    39   24   25 ar
    40   25   26 ar
    41   25   31 ar
    42   26   27 1
    43   26   28 ar
    44   27   45 1
    45   27   46 1
    46   28   29 ar
    47   28   48 1
    48   29   30 ar
    49   29   47 1
    50   30   31 ar
@<TRIPOS>SUBSTRUCTURE
     1 ACP         1 GROUP 0 A     ****
@<TRIPOS>MOLECULE
[[5-(6-amino-1,8-dihydropurine-6,8-diylium-7-id-9-yl)-3,4-dihydroxy-tetrahydrofuran-2-yl]methoxy-oxido-phosphoryl]oxy-(phosphonomethyl)phosphinate
   48    50     1     0     0
SMALL
USER_CHARGES

@<TRIPOS>ATOM
      1 PG          0.2594   -5.8260   -1.3818 P.3       1 ACP         1.6558
      2 O1G         1.5738   -5.1728   -1.0770 O.2       1 ACP        -0.9020
      3 O2G        -0.7967   -5.8636   -0.1597 O.3       1 ACP        -0.8036
      4 O3G         0.3454   -7.3677   -1.8565 O.3       1 ACP        -0.8036
      5 PB         -1.2348   -3.2756   -2.6439 P.3       1 ACP         1.4945
      6 O1B        -2.1372   -3.1390   -1.4395 O.co2     1 ACP        -0.8481
      7 O2B        -1.6816   -2.8906   -4.0352 O.co2     1 ACP        -0.8481
      8 C3B        -0.6746   -5.0370   -2.7124 C.3       1 ACP        -0.6636
      9 PA          1.5529   -2.4527   -3.2419 P.3       1 ACP         1.6023
     10 O1A         1.2368   -1.5456   -4.4115 O.co2     1 ACP        -0.8673
     11 O2A         2.1257   -3.8345   -3.4711 O.co2     1 ACP        -0.8673
     12 O3A         0.2119   -2.5960   -2.3207 O.3       1 ACP        -0.8150
     13 O5'         2.5238   -1.6632   -2.1888 O.3       1 ACP        -0.5522
     14 C5'         2.2816   -0.2918   -1.9206 C.3       1 ACP         0.2181
     15 C4'         2.7248    0.0226   -0.4980 C.3       1 ACP         0.0915
     16 O4'         2.4697    1.4219   -0.2462 O.3       1 ACP        -0.3675
     17 C3'         1.9404   -0.7419    0.5596 C.3       1 ACP         0.0748
     18 O3'         2.7418   -0.8086    1.7389 O.3       1 ACP        -0.5646
     19 C2'         0.7477    0.1630    0.7858 C.3       1 ACP         0.0804
     20 O2'         0.1373   -0.0577    2.0407 O.3       1 ACP        -0.5882
     21 C1'         1.3733    1.5427    0.6747 C.3       1 ACP         0.3809
     22 N9          0.4520    2.5240    0.1767 N.pl3     1 ACP        -0.4412
     23 C8          0.1798    2.8712   -1.2933 C.ar      1 ACP         0.1936
     24 N7         -0.7494    3.8400   -1.3610 N.2       1 ACP        -0.2746
     25 C5         -1.0173    4.0603   -0.0358 C.ar      1 ACP        -0.1386
     26 C6         -2.0105    5.0717    0.4241 C.ar      1 ACP         0.4778
     27 N6         -2.6723    5.7982   -0.4628 N.pl3     1 ACP        -0.8290
     28 N1         -2.1445    5.1522    1.7502 N.pl3     1 ACP        -0.6985
     29 C2         -1.3755    4.3143    2.6426 C.ar      1 ACP         0.6179
     30 N3         -0.5075    3.4292    2.2616 N.ar      1 ACP        -0.5105
     31 C4         -0.3667    3.3425    0.9070 C.ar      1 ACP         0.2753
     32 HOG2       -0.5490   -6.3276    0.6682 H         1 ACP         0.4487
     33 HOG3        0.7438   -8.0295   -1.2521 H         1 ACP         0.4487
     34 H3B1       -0.0801   -5.1212   -3.6291 H         1 ACP         0.1088
     35 H3B2       -1.5814   -5.6335   -2.8639 H         1 ACP         0.1088
     36 H5'1        2.8430    0.3138   -2.6391 H         1 ACP         0.0327
     37 H5'2        1.2126   -0.0907   -2.0421 H         1 ACP         0.0327
     38 H4'         3.8046   -0.1390   -0.4011 H         1 ACP         0.1275
     39 H3'         1.6787   -1.7627    0.2719 H         1 ACP         0.0637
     40 HO3'        2.2231   -1.2979    2.3952 H         1 ACP         0.4127
     41 H2'         0.0002   -0.0084   -0.0014 H         1 ACP         0.0692
     42 HO2'       -0.6132    0.5577    2.1063 H         1 ACP         0.4431
     43 H1'         1.7718    1.9211    1.6015 H         1 ACP         0.1199
     44 H8          0.6089    2.4651   -2.2147 H         1 ACP         0.2941
     45 HN61       -2.5055    5.6680   -1.4503 H         1 ACP         0.4754
     46 HN62       -3.3462    6.4841   -0.1542 H         1 ACP         0.4754
     47 H2         -1.5932    4.4937    3.7066 H         1 ACP         0.0886
     48 H48        -2.8098    5.8270    2.1160 H         1 ACP         0.4707
@<TRIPOS>BOND
     1    1    2 2
     2    1    3 1
     3    1    4 1
     4    1    8 1
     5    3   32 1
     6    4   33 1
     7    5    6 2
     8    5    7 1
     9    5    8 1
    10    5   12 1
    11    8   34 1
    12    8   35 1
    13    9   10 2
    14    9   11 1
    15    9   12 1
    16    9   13 1
    17   13   14 1
    18   14   15 1
    19   14   36 1
    20   14   37 1
    21   15   16 1
    22   15   17 1
    23   15   38 1
    24   16   21 1
    25   17   18 1
    26   17   19 1
    27   17   39 1
    28   18   40 1
    29   19   20 1
    30   19   21 1
    31   19   41 1
    32   20   42 1
    33   21   22 1
    34   21   43 1
    35   22   23 ar
    36   22   31 ar
    37   23   24 ar
    38   23   44 1
    39   24   25 ar
    40   25   26 ar
    41   25   31 ar
    42   26   27 1
    43   26   28 ar
    44   27   45 1
    45   27   46 1
    46   28   29 ar
    47   28   48 1
    48   29   30 ar
    49   29   47 1
    50   30   31 ar
@<TRIPOS>SUBSTRUCTURE
     1 ACP         1 GROUP 0 A     ****
@<TRIPOS>MOLECULE
[[5-(6-amino-1,8-dihydropurine-6,8-diylium-7-id-9-yl)-3,4-dihydroxy-tetrahydrofuran-2-yl]methoxy-oxido-phosphoryl]oxy-(phosphonomethyl)phosphinate
   48    50     1     0     0
SMALL
USER_CHARGES

@<TRIPOS>ATOM
      1 PG          0.4393   -3.5152   -4.9796 P.3       1 ACP         1.6558
      2 O1G        -1.0007   -3.8693   -5.1994 O.2       1 ACP        -0.9020
      3 O2G         1.4656   -4.7629   -4.9603 O.3       1 ACP        -0.8036
      4 O3G         0.7591   -2.7395   -3.5991 O.3       1 ACP        -0.8036
      5 PB          2.8926   -1.8357   -6.2005 P.3       1 ACP         1.4945
      6 O1B         3.0942   -0.9504   -7.4084 O.co2     1 ACP        -0.8481
      7 O2B         3.7646   -3.0391   -5.9271 O.co2     1 ACP        -0.8481
      8 C3B         1.1390   -2.4226   -6.2374 C.3       1 ACP        -0.6636
      9 PA          3.9531   -0.2088   -3.9567 P.3       1 ACP         1.6023
     10 O1A         4.6365    0.8495   -4.7954 O.co2     1 ACP        -0.8673
     11 O2A         4.7595   -1.2976   -3.2826 O.co2     1 ACP        -0.8673
     12 O3A         2.7887   -0.9130   -4.8599 O.3       1 ACP        -0.8150
     13 O5'         3.0199    0.5139   -2.8245 O.3       1 ACP        -0.5522
     14 C5'         2.2816   -0.2918   -1.9206 C.3       1 ACP         0.2181
     15 C4'         2.7248    0.0226   -0.4980 C.3       1 ACP         0.0915
     16 O4'         2.4697    1.4219   -0.2462 O.3       1 ACP        -0.3675
     17 C3'         1.9404   -0.7419    0.5596 C.3       1 ACP         0.0748
     18 O3'         2.7418   -0.8086    1.7389 O.3       1 ACP        -0.5646
     19 C2'         0.7477    0.1630    0.7858 C.3       1 ACP         0.0804
     20 O2'         0.1373   -0.0577    2.0407 O.3       1 ACP        -0.5882
     21 C1'         1.3733    1.5427    0.6747 C.3       1 ACP         0.3809
     22 N9          0.4520    2.5240    0.1767 N.pl3     1 ACP        -0.4412
     23 C8          0.1798    2.8712   -1.2933 C.ar      1 ACP         0.1936
     24 N7         -0.7494    3.8400   -1.3610 N.2       1 ACP        -0.2746
     25 C5         -1.0173    4.0603   -0.0358 C.ar      1 ACP        -0.1386
     26 C6         -2.0105    5.0717    0.4241 C.ar      1 ACP         0.4778
     27 N6         -2.6723    5.7982   -0.4628 N.pl3     1 ACP        -0.8290
     28 N1         -2.1445    5.1522    1.7502 N.pl3     1 ACP        -0.6985
     29 C2         -1.3755    4.3143    2.6426 C.ar      1 ACP         0.6179
     30 N3         -0.5075    3.4292    2.2616 N.ar      1 ACP        -0.5105
     31 C4         -0.3667    3.3425    0.9070 C.ar      1 ACP         0.2753
     32 HOG2        1.3451   -5.4668   -4.2880 H         1 ACP         0.4487
     33 HOG3        0.5454   -3.1771   -2.7477 H         1 ACP         0.4487
     34 H3B1        1.0134   -2.9133   -7.2091 H         1 ACP         0.1088
     35 H3B2        0.5210   -1.5176   -6.2543 H         1 ACP         0.1088
     36 H5'1        1.2154   -0.0780   -2.0455 H         1 ACP         0.0327
     37 H5'2        2.4646   -1.3453   -2.1548 H         1 ACP         0.0327
     38 H4'         3.8046   -0.1390   -0.4011 H         1 ACP         0.1275
     39 H3'         1.6787   -1.7627    0.2719 H         1 ACP         0.0637
     40 HO3'        2.2231   -1.2979    2.3952 H         1 ACP         0.4127
     41 H2'         0.0002   -0.0084   -0.0014 H         1 ACP         0.0692
     42 HO2'        0.8091    0.1203    2.7213 H         1 ACP         0.4431
     43 H1'         1.7718    1.9211    1.6015 H         1 ACP         0.1199
     44 H8          0.6089    2.4651   -2.2147 H         1 ACP         0.2941
     45 HN61       -2.5055    5.6680   -1.4503 H         1 ACP         0.4754
     46 HN62       -3.3462    6.4841   -0.1542 H         1 ACP         0.4754
     47 H2         -1.5932    4.4937    3.7066 H         1 ACP         0.0886
     48 H48        -2.8098    5.8270    2.1160 H         1 ACP         0.4707
@<TRIPOS>BOND
     1    1    2 2
     2    1    3 1
     3    1    4 1
     4    1    8 1
     5    3   32 1
     6    4   33 1
     7    5    6 2
     8    5    7 1
     9    5    8 1
    10    5   12 1
    11    8   34 1
    12    8   35 1
    13    9   10 2
    14    9   11 1
    15    9   12 1
    16    9   13 1
    17   13   14 1
    18   14   15 1
    19   14   36 1
    20   14   37 1
    21   15   16 1
    22   15   17 1
    23   15   38 1
    24   16   21 1
    25   17   18 1
    26   17   19 1
    27   17   39 1
    28   18   40 1
    29   19   20 1
    30   19   21 1
    31   19   41 1
    32   20   42 1
    33   21   22 1
    34   21   43 1
    35   22   23 ar
    36   22   31 ar
    37   23   24 ar
    38   23   44 1
    39   24   25 ar
    40   25   26 ar
    41   25   31 ar
    42   26   27 1
    43   26   28 ar
    44   27   45 1
    45   27   46 1
    46   28   29 ar
    47   28   48 1
    48   29   30 ar
    49   29   47 1
    50   30   31 ar
@<TRIPOS>SUBSTRUCTURE
     1 ACP         1 GROUP 0 A     ****
@<TRIPOS>MOLECULE
[[5-(6-amino-1,8-dihydropurine-6,8-diylium-7-id-9-yl)-3,4-dihydroxy-tetrahydrofuran-2-yl]methoxy-oxido-phosphoryl]oxy-(phosphonomethyl)phosphinate
   48    50     1     0     0
SMALL
USER_CHARGES

@<TRIPOS>ATOM
      1 PG          3.0645   -3.5053   -6.1982 P.3       1 ACP         1.6558
      2 O1G         3.7708   -3.2331   -7.4922 O.2       1 ACP        -0.9020
      3 O2G         3.8166   -2.9718   -4.8715 O.3       1 ACP        -0.8036
      4 O3G         2.7854   -5.0633   -5.8756 O.3       1 ACP        -0.8036
      5 PB          1.1350   -0.9349   -6.1834 P.3       1 ACP         1.4945
      6 O1B        -0.3515   -0.7069   -6.0347 O.co2     1 ACP        -0.8481
      7 O2B         1.9145   -0.4268   -7.3740 O.co2     1 ACP        -0.8481
      8 C3B         1.4237   -2.7585   -6.0729 C.3       1 ACP        -0.6636
      9 PA          2.3308    0.9611   -4.2388 P.3       1 ACP         1.6023
     10 O1A         1.0771    1.7604   -3.9568 O.co2     1 ACP        -0.8673
     11 O2A         3.4129    1.5166   -5.1392 O.co2     1 ACP        -0.8673
     12 O3A         1.8925   -0.5072   -4.8040 O.3       1 ACP        -0.8150
     13 O5'         3.0199    0.5139   -2.8245 O.3       1 ACP        -0.5522
     14 C5'         2.2816   -0.2918   -1.9206 C.3       1 ACP         0.2181
     15 C4'         2.7248    0.0226   -0.4980 C.3       1 ACP         0.0915
     16 O4'         2.4697    1.4219   -0.2462 O.3       1 ACP        -0.3675
     17 C3'         1.9404   -0.7419    0.5596 C.3       1 ACP         0.0748
     18 O3'         2.7418   -0.8086    1.7389 O.3       1 ACP        -0.5646
     19 C2'         0.7477    0.1630    0.7858 C.3       1 ACP         0.0804
     20 O2'         0.1373   -0.0577    2.0407 O.3       1 ACP        -0.5882
     21 C1'         1.3733    1.5427    0.6747 C.3       1 ACP         0.3809
     22 N9          0.4520    2.5240    0.1767 N.pl3     1 ACP        -0.4412
     23 C8          0.5793    3.3338   -1.1209 C.ar      1 ACP         0.1936
     24 N7         -0.4807    4.1508   -1.2458 N.2       1 ACP        -0.2746
     25 C5         -1.1921    3.8572   -0.1126 C.ar      1 ACP        -0.1386
     26 C6         -2.4855    4.5203    0.2163 C.ar      1 ACP         0.4778
     27 N6         -2.9873    5.4319   -0.6020 N.pl3     1 ACP        -0.8290
     28 N1         -3.0414    4.1119    1.3596 N.pl3     1 ACP        -0.6985
     29 C2         -2.4169    3.1071    2.1904 C.ar      1 ACP         0.6179
     30 N3         -1.2928    2.5191    1.9210 N.ar      1 ACP        -0.5105
     31 C4         -0.7202    2.9326    0.7534 C.ar      1 ACP         0.2753
     32 HOG2        4.7138   -3.3104   -4.6655 H         1 ACP         0.4487
     33 HOG3        3.5468   -5.6772   -5.8019 H         1 ACP         0.4487
     34 H3B1        0.7970   -3.2034   -6.8540 H         1 ACP         0.1088
     35 H3B2        1.0033   -3.0701   -5.1100 H         1 ACP         0.1088
     36 H5'1        1.2154   -0.0780   -2.0455 H         1 ACP         0.0327
     37 H5'2        2.4646   -1.3453   -2.1548 H         1 ACP         0.0327
     38 H4'         3.8046   -0.1390   -0.4011 H         1 ACP         0.1275
     39 H3'         1.6787   -1.7627    0.2719 H         1 ACP         0.0637
     40 HO3'        2.2231   -1.2979    2.3952 H         1 ACP         0.4127
     41 H2'         0.0002   -0.0084   -0.0014 H         1 ACP         0.0692
     42 HO2'       -0.1554   -0.9852    2.0577 H         1 ACP         0.4431
     43 H1'         1.7718    1.9211    1.6015 H         1 ACP         0.1199
     44 H8          1.3565    3.3309   -1.8916 H         1 ACP         0.2941
     45 HN61       -2.4952    5.6785   -1.4487 H         1 ACP         0.4754
     46 HN62       -3.8637    5.8828   -0.3819 H         1 ACP         0.4754
     47 H2         -2.9911    2.8734    3.1000 H         1 ACP         0.0886
     48 H48        -3.9253    4.5332    1.6302 H         1 ACP         0.4707
@<TRIPOS>BOND
     1    1    2 2
     2    1    3 1
     3    1    4 1
     4    1    8 1
     5    3   32 1
     6    4   33 1
     7    5    6 2
     8    5    7 1
     9    5    8 1
    10    5   12 1
    11    8   34 1
    12    8   35 1
    13    9   10 2
    14    9   11 1
    15    9   12 1
    16    9   13 1
    17   13   14 1
    18   14   15 1
    19   14   36 1
    20   14   37 1
    21   15   16 1
    22   15   17 1
    23   15   38 1
    24   16   21 1
    25   17   18 1
    26   17   19 1
    27   17   39 1
    28   18   40 1
    29   19   20 1
    30   19   21 1
    31   19   41 1
    32   20   42 1
    33   21   22 1
    34   21   43 1
    35   22   23 ar
    36   22   31 ar
    37   23   24 ar
    38   23   44 1
    39   24   25 ar
    40   25   26 ar
    41   25   31 ar
    42   26   27 1
    43   26   28 ar
    44   27   45 1
    45   27   46 1
    46   28   29 ar
    47   28   48 1
    48   29   30 ar
    49   29   47 1
    50   30   31 ar
@<TRIPOS>SUBSTRUCTURE
     1 ACP         1 GROUP 0 A     ****
@<TRIPOS>MOLECULE
[[5-(6-amino-1,8-dihydropurine-6,8-diylium-7-id-9-yl)-3,4-dihydroxy-tetrahydrofuran-2-yl]methoxy-oxido-phosphoryl]oxy-(phosphonomethyl)phosphinate
   48    50     1     0     0
SMALL
USER_CHARGES

@<TRIPOS>ATOM
      1 PG          1.7068   -1.7237   -8.1174 P.3       1 ACP         1.6558
      2 O1G         1.3029   -0.9547   -9.3392 O.2       1 ACP        -0.9020
      3 O2G         2.5615   -3.0666   -8.3937 O.3       1 ACP        -0.8036
      4 O3G         0.4894   -2.2337   -7.1859 O.3       1 ACP        -0.8036
      5 PB          3.3825   -1.5166   -5.3826 P.3       1 ACP         1.4945
      6 O1B         4.2059   -0.4464   -4.7043 O.co2     1 ACP        -0.8481
      7 O2B         3.9406   -2.8847   -5.6999 O.co2     1 ACP        -0.8481
      8 C3B         2.7478   -0.7997   -6.9650 C.3       1 ACP        -0.6636
      9 PA          1.5529   -2.4527   -3.2419 P.3       1 ACP         1.6023
     10 O1A         2.0063   -3.8917   -3.3620 O.co2     1 ACP        -0.8673
     11 O2A         0.1158   -2.1233   -2.9012 O.co2     1 ACP        -0.8673
     12 O3A         1.9500   -1.6683   -4.6184 O.3       1 ACP        -0.8150
     13 O5'         2.5238   -1.6632   -2.1888 O.3       1 ACP        -0.5522
     14 C5'         2.2816   -0.2918   -1.9206 C.3       1 ACP         0.2181
     15 C4'         2.7248    0.0226   -0.4980 C.3       1 ACP         0.0915
     16 O4'         2.4697    1.4219   -0.2462 O.3       1 ACP        -0.3675
     17 C3'         1.9404   -0.7419    0.5596 C.3       1 ACP         0.0748
     18 O3'         2.7418   -0.8086    1.7389 O.3       1 ACP        -0.5646
     19 C2'         0.7477    0.1630    0.7858 C.3       1 ACP         0.0804
     20 O2'         0.1373   -0.0577    2.0407 O.3       1 ACP        -0.5882
     21 C1'         1.3733    1.5427    0.6747 C.3       1 ACP         0.3809
     22 N9          0.4520    2.5240    0.1767 N.pl3     1 ACP        -0.4412
     23 C8          0.1798    2.8712   -1.2933 C.ar      1 ACP         0.1936
     24 N7         -0.7494    3.8400   -1.3610 N.2       1 ACP        -0.2746
     25 C5         -1.0173    4.0603   -0.0358 C.ar      1 ACP        -0.1386
     26 C6         -2.0105    5.0717    0.4241 C.ar      1 ACP         0.4778
     27 N6         -2.6723    5.7982   -0.4628 N.pl3     1 ACP        -0.8290
     28 N1         -2.1445    5.1522    1.7502 N.pl3     1 ACP        -0.6985
     29 C2         -1.3755    4.3143    2.6426 C.ar      1 ACP         0.6179
     30 N3         -0.5075    3.4292    2.2616 N.ar      1 ACP        -0.5105
     31 C4         -0.3667    3.3425    0.9070 C.ar      1 ACP         0.2753
     32 HOG2        2.1632   -3.7801   -8.9361 H         1 ACP         0.4487
     33 HOG3       -0.1818   -2.8374   -7.5695 H         1 ACP         0.4487
     34 H3B1        3.6358   -0.4675   -7.5146 H         1 ACP         0.1088
     35 H3B2        2.1910    0.1013   -6.6831 H         1 ACP         0.1088
     36 H5'1        2.8430    0.3138   -2.6391 H         1 ACP         0.0327
     37 H5'2        1.2126   -0.0907   -2.0421 H         1 ACP         0.0327
     38 H4'         3.8046   -0.1390   -0.4011 H         1 ACP         0.1275
     39 H3'         1.6787   -1.7627    0.2719 H         1 ACP         0.0637
     40 HO3'        2.2231   -1.2979    2.3952 H         1 ACP         0.4127
     41 H2'         0.0002   -0.0084   -0.0014 H         1 ACP         0.0692
     42 HO2'       -0.6132    0.5577    2.1063 H         1 ACP         0.4431
     43 H1'         1.7718    1.9211    1.6015 H         1 ACP         0.1199
     44 H8          0.6089    2.4651   -2.2147 H         1 ACP         0.2941
     45 HN61       -2.5055    5.6680   -1.4503 H         1 ACP         0.4754
     46 HN62       -3.3462    6.4841   -0.1542 H         1 ACP         0.4754
     47 H2         -1.5932    4.4937    3.7066 H         1 ACP         0.0886
     48 H48        -2.8098    5.8270    2.1160 H         1 ACP         0.4707
@<TRIPOS>BOND
     1    1    2 2
     2    1    3 1
     3    1    4 1
     4    1    8 1
     5    3   32 1
     6    4   33 1
     7    5    6 2
     8    5    7 1
     9    5    8 1
    10    5   12 1
    11    8   34 1
    12    8   35 1
    13    9   10 2
    14    9   11 1
    15    9   12 1
    16    9   13 1
    17   13   14 1
    18   14   15 1
    19   14   36 1
    20   14   37 1
    21   15   16 1
    22   15   17 1
    23   15   38 1
    24   16   21 1
    25   17   18 1
    26   17   19 1
    27   17   39 1
    28   18   40 1
    29   19   20 1
    30   19   21 1
    31   19   41 1
    32   20   42 1
    33   21   22 1
    34   21   43 1
    35   22   23 ar
    36   22   31 ar
    37   23   24 ar
    38   23   44 1
    39   24   25 ar
    40   25   26 ar
    41   25   31 ar
    42   26   27 1
    43   26   28 ar
    44   27   45 1
    45   27   46 1
    46   28   29 ar
    47   28   48 1
    48   29   30 ar
    49   29   47 1
    50   30   31 ar
@<TRIPOS>SUBSTRUCTURE
     1 ACP         1 GROUP 0 A     ****
@<TRIPOS>MOLECULE
[[5-(6-amino-1,8-dihydropurine-6,8-diylium-7-id-9-yl)-3,4-dihydroxy-tetrahydrofuran-2-yl]methoxy-oxido-phosphoryl]oxy-(phosphonomethyl)phosphinate
   48    50     1     0     0
SMALL
USER_CHARGES

@<TRIPOS>ATOM
      1 PG          1.5429   -3.7583   -5.8793 P.3       1 ACP         1.6558
      2 O1G         2.0744   -4.7103   -4.8504 O.2       1 ACP        -0.9020
      3 O2G         0.3450   -2.7955   -5.3808 O.3       1 ACP        -0.8036
      4 O3G         0.9479   -4.4436   -7.2157 O.3       1 ACP        -0.8036
      5 PB          3.6739   -1.3905   -5.4523 P.3       1 ACP         1.4945
      6 O1B         4.6006   -0.6030   -6.3494 O.co2     1 ACP        -0.8481
      7 O2B         4.1717   -2.1475   -4.2429 O.co2     1 ACP        -0.8481
      8 C3B         2.7679   -2.5961   -6.5230 C.3       1 ACP        -0.6636
      9 PA          2.3308    0.9611   -4.2388 P.3       1 ACP         1.6023
     10 O1A         0.8771    1.3091   -4.0021 O.co2     1 ACP        -0.8673
     11 O2A         3.2554    1.9407   -4.9284 O.co2     1 ACP        -0.8673
     12 O3A         2.3991   -0.4624   -5.0367 O.3       1 ACP        -0.8150
     13 O5'         3.0199    0.5139   -2.8245 O.3       1 ACP        -0.5522
     14 C5'         2.2816   -0.2918   -1.9206 C.3       1 ACP         0.2181
     15 C4'         2.7248    0.0226   -0.4980 C.3       1 ACP         0.0915
     16 O4'         2.4697    1.4219   -0.2462 O.3       1 ACP        -0.3675
     17 C3'         1.9404   -0.7419    0.5596 C.3       1 ACP         0.0748
     18 O3'         2.7418   -0.8086    1.7389 O.3       1 ACP        -0.5646
     19 C2'         0.7477    0.1630    0.7858 C.3       1 ACP         0.0804
     20 O2'         0.1373   -0.0577    2.0407 O.3       1 ACP        -0.5882
     21 C1'         1.3733    1.5427    0.6747 C.3       1 ACP         0.3809
     22 N9          0.4520    2.5240    0.1767 N.pl3     1 ACP        -0.4412
     23 C8          0.5793    3.3338   -1.1209 C.ar      1 ACP         0.1936
     24 N7         -0.4807    4.1508   -1.2458 N.2       1 ACP        -0.2746
     25 C5         -1.1921    3.8572   -0.1126 C.ar      1 ACP        -0.1386
     26 C6         -2.4855    4.5203    0.2163 C.ar      1 ACP         0.4778
     27 N6         -2.9873    5.4319   -0.6020 N.pl3     1 ACP        -0.8290
     28 N1         -3.0414    4.1119    1.3596 N.pl3     1 ACP        -0.6985
     29 C2         -2.4169    3.1071    2.1904 C.ar      1 ACP         0.6179
     30 N3         -1.2928    2.5191    1.9210 N.ar      1 ACP        -0.5105
     31 C4         -0.7202    2.9326    0.7534 C.ar      1 ACP         0.2753
     32 HOG2       -0.4879   -3.2013   -5.0589 H         1 ACP         0.4487
     33 HOG3        0.1945   -5.0665   -7.1352 H         1 ACP         0.4487
     34 H3B1        3.5440   -3.1804   -7.0301 H         1 ACP         0.1088
     35 H3B2        2.2667   -1.9962   -7.2912 H         1 ACP         0.1088
     36 H5'1        1.2154   -0.0780   -2.0455 H         1 ACP         0.0327
     37 H5'2        2.4646   -1.3453   -2.1548 H         1 ACP         0.0327
     38 H4'         3.8046   -0.1390   -0.4011 H         1 ACP         0.1275
     39 H3'         1.6787   -1.7627    0.2719 H         1 ACP         0.0637
     40 HO3'        2.2231   -1.2979    2.3952 H         1 ACP         0.4127
     41 H2'         0.0002   -0.0084   -0.0014 H         1 ACP         0.0692
     42 HO2'       -0.1554   -0.9852    2.0577 H         1 ACP         0.4431
     43 H1'         1.7718    1.9211    1.6015 H         1 ACP         0.1199
     44 H8          1.3565    3.3309   -1.8916 H         1 ACP         0.2941
     45 HN61       -2.4952    5.6785   -1.4487 H         1 ACP         0.4754
     46 HN62       -3.8637    5.8828   -0.3819 H         1 ACP         0.4754
     47 H2         -2.9911    2.8734    3.1000 H         1 ACP         0.0886
     48 H48        -3.9253    4.5332    1.6302 H         1 ACP         0.4707
@<TRIPOS>BOND
     1    1    2 2
     2    1    3 1
     3    1    4 1
     4    1    8 1
     5    3   32 1
     6    4   33 1
     7    5    6 2
     8    5    7 1
     9    5    8 1
    10    5   12 1
    11    8   34 1
    12    8   35 1
    13    9   10 2
    14    9   11 1
    15    9   12 1
    16    9   13 1
    17   13   14 1
    18   14   15 1
    19   14   36 1
    20   14   37 1
    21   15   16 1
    22   15   17 1
    23   15   38 1
    24   16   21 1
    25   17   18 1
    26   17   19 1
    27   17   39 1
    28   18   40 1
    29   19   20 1
    30   19   21 1
    31   19   41 1
    32   20   42 1
    33   21   22 1
    34   21   43 1
    35   22   23 ar
    36   22   31 ar
    37   23   24 ar
    38   23   44 1
    39   24   25 ar
    40   25   26 ar
    41   25   31 ar
    42   26   27 1
    43   26   28 ar
    44   27   45 1
    45   27   46 1
    46   28   29 ar
    47   28   48 1
    48   29   30 ar
    49   29   47 1
    50   30   31 ar
@<TRIPOS>SUBSTRUCTURE
     1 ACP         1 GROUP 0 A     ****
@<TRIPOS>MOLECULE
[[5-(6-amino-1,8-dihydropurine-6,8-diylium-7-id-9-yl)-3,4-dihydroxy-tetrahydrofuran-2-yl]methoxy-oxido-phosphoryl]oxy-(phosphonomethyl)phosphinate
   48    50     1     0     0
SMALL
USER_CHARGES

@<TRIPOS>ATOM
      1 PG          3.7893   -4.3683   -3.5755 P.3       1 ACP         1.6558
      2 O1G         4.3280   -4.3846   -2.1766 O.2       1 ACP        -0.9020
      3 O2G         2.2869   -3.7958   -3.7340 O.3       1 ACP        -0.8036
      4 O3G         3.7273   -5.8054   -4.3108 O.3       1 ACP        -0.8036
      5 PB          5.0047   -1.5398   -4.4985 P.3       1 ACP         1.4945
      6 O1B         5.8431   -1.0569   -5.6594 O.co2     1 ACP        -0.8481
      7 O2B         5.4162   -1.3236   -3.0607 O.co2     1 ACP        -0.8481
      8 C3B         4.7424   -3.3560   -4.7297 C.3       1 ACP        -0.6636
      9 PA          2.7380    0.3741   -4.4295 P.3       1 ACP         1.6023
     10 O1A         1.2513    0.2198   -4.6674 O.co2     1 ACP        -0.8673
     11 O2A         3.5254    1.4501   -5.1452 O.co2     1 ACP        -0.8673
     12 O3A         3.4589   -1.0647   -4.7080 O.3       1 ACP        -0.8150
     13 O5'         3.0199    0.5139   -2.8245 O.3       1 ACP        -0.5522
     14 C5'         2.2816   -0.2918   -1.9206 C.3       1 ACP         0.2181
     15 C4'         2.7248    0.0226   -0.4980 C.3       1 ACP         0.0915
     16 O4'         2.4697    1.4219   -0.2462 O.3       1 ACP        -0.3675
     17 C3'         1.9404   -0.7419    0.5596 C.3       1 ACP         0.0748
     18 O3'         2.7418   -0.8086    1.7389 O.3       1 ACP        -0.5646
     19 C2'         0.7477    0.1630    0.7858 C.3       1 ACP         0.0804
     20 O2'         0.1373   -0.0577    2.0407 O.3       1 ACP        -0.5882
     21 C1'         1.3733    1.5427    0.6747 C.3       1 ACP         0.3809
     22 N9          0.4520    2.5240    0.1767 N.pl3     1 ACP        -0.4412
     23 C8         -1.0660    2.5608    0.3999 C.ar      1 ACP         0.1936
     24 N7         -1.5852    3.6333   -0.2221 N.2       1 ACP        -0.2746
     25 C5         -0.4682    4.1996   -0.7771 C.ar      1 ACP        -0.1386
     26 C6         -0.5216    5.4476   -1.5899 C.ar      1 ACP         0.4778
     27 N6         -1.6813    6.0510   -1.7982 N.pl3     1 ACP        -0.8290
     28 N1          0.6621    5.8575   -2.0523 N.pl3     1 ACP        -0.6985
     29 C2          1.8795    5.1301   -1.7717 C.ar      1 ACP         0.6179
     30 N3          1.9458    4.0434   -1.0670 N.ar      1 ACP        -0.5105
     31 C4          0.7388    3.6199   -0.5917 C.ar      1 ACP         0.2753
     32 HOG2        1.5548   -4.2454   -3.2608 H         1 ACP         0.4487
     33 HOG3        3.1850   -6.5195   -3.9134 H         1 ACP         0.4487
     34 H3B1        5.7455   -3.7914   -4.8015 H         1 ACP         0.1088
     35 H3B2        4.2746   -3.4676   -5.7146 H         1 ACP         0.1088
     36 H5'1        1.2154   -0.0780   -2.0455 H         1 ACP         0.0327
     37 H5'2        2.4646   -1.3453   -2.1548 H         1 ACP         0.0327
     38 H4'         3.8046   -0.1390   -0.4011 H         1 ACP         0.1275
     39 H3'         1.6787   -1.7627    0.2719 H         1 ACP         0.0637
     40 HO3'        2.2231   -1.2979    2.3952 H         1 ACP         0.4127
     41 H2'         0.0002   -0.0084   -0.0014 H         1 ACP         0.0692
     42 HO2'       -0.1554   -0.9852    2.0577 H         1 ACP         0.4431
     43 H1'         1.7718    1.9211    1.6015 H         1 ACP         0.1199
     44 H8         -1.7235    1.8833    0.9537 H         1 ACP         0.2941
     45 HN61       -2.5296    5.6672   -1.4072 H         1 ACP         0.4754
     46 HN62       -1.7205    6.8969   -2.3483 H         1 ACP         0.4754
     47 H2          2.7750    5.5878   -2.2190 H         1 ACP         0.0886
     48 H48         0.6808    6.7046   -2.6128 H         1 ACP         0.4707
@<TRIPOS>BOND
     1    1    2 2
     2    1    3 1
     3    1    4 1
     4    1    8 1
     5    3   32 1
     6    4   33 1
     7    5    6 2
     8    5    7 1
     9    5    8 1
    10    5   12 1
    11    8   34 1
    12    8   35 1
    13    9   10 2
    14    9   11 1
    15    9   12 1
    16    9   13 1
    17   13   14 1
    18   14   15 1
    19   14   36 1
    20   14   37 1
    21   15   16 1
    22   15   17 1
    23   15   38 1
    24   16   21 1
    25   17   18 1
    26   17   19 1
    27   17   39 1
    28   18   40 1
    29   19   20 1
    30   19   21 1
    31   19   41 1
    32   20   42 1
    33   21   22 1
    34   21   43 1
    35   22   23 ar
    36   22   31 ar
    37   23   24 ar
    38   23   44 1
    39   24   25 ar
    40   25   26 ar
    41   25   31 ar
    42   26   27 1
    43   26   28 ar
    44   27   45 1
    45   27   46 1
    46   28   29 ar
    47   28   48 1
    48   29   30 ar
    49   29   47 1
    50   30   31 ar
@<TRIPOS>SUBSTRUCTURE
     1 ACP         1 GROUP 0 A     ****
@<TRIPOS>MOLECULE
[[5-(6-amino-1,8-dihydropurine-6,8-diylium-7-id-9-yl)-3,4-dihydroxy-tetrahydrofuran-2-yl]methoxy-oxido-phosphoryl]oxy-(phosphonomethyl)phosphinate
   48    50     1     0     0
SMALL
USER_CHARGES

@<TRIPOS>ATOM
      1 PG         -1.2891   -0.4478   -4.7769 P.3       1 ACP         1.6558
      2 O1G        -1.6368    0.1962   -3.4686 O.2       1 ACP        -0.9020
      3 O2G        -2.5453   -0.8245   -5.7204 O.3       1 ACP        -0.8036
      4 O3G        -0.4659   -1.8336   -4.6699 O.3       1 ACP        -0.8036
      5 PB          1.4317    1.1584   -5.3662 P.3       1 ACP         1.4945
      6 O1B         1.2663    2.0041   -4.1249 O.co2     1 ACP        -0.8481
      7 O2B         2.1051    1.6799   -6.6145 O.co2     1 ACP        -0.8481
      8 C3B        -0.2510    0.5657   -5.8542 C.3       1 ACP        -0.6636
      9 PA          3.4810   -0.6670   -4.2373 P.3       1 ACP         1.6023
     10 O1A         4.6070   -0.0329   -5.0251 O.co2     1 ACP        -0.8673
     11 O2A         3.4859   -2.1517   -3.9447 O.co2     1 ACP        -0.8673
     12 O3A         2.0662   -0.2878   -4.9597 O.3       1 ACP        -0.8150
     13 O5'         3.2885    0.1337   -2.8242 O.3       1 ACP        -0.5522
     14 C5'         2.2816   -0.2918   -1.9206 C.3       1 ACP         0.2181
     15 C4'         2.7248    0.0226   -0.4980 C.3       1 ACP         0.0915
     16 O4'         2.4697    1.4219   -0.2462 O.3       1 ACP        -0.3675
     17 C3'         1.9404   -0.7419    0.5596 C.3       1 ACP         0.0748
     18 O3'         2.7418   -0.8086    1.7389 O.3       1 ACP        -0.5646
     19 C2'         0.7477    0.1630    0.7858 C.3       1 ACP         0.0804
     20 O2'         0.1373   -0.0577    2.0407 O.3       1 ACP        -0.5882
     21 C1'         1.3733    1.5427    0.6747 C.3       1 ACP         0.3809
     22 N9          0.4520    2.5240    0.1767 N.pl3     1 ACP        -0.4412
     23 C8         -0.3054    2.4845   -1.1576 C.ar      1 ACP         0.1936
     24 N7         -1.0755    3.5806   -1.2691 N.2       1 ACP        -0.2746
     25 C5         -0.8043    4.2306   -0.0942 C.ar      1 ACP        -0.1386
     26 C6         -1.4324    5.5335    0.2646 C.ar      1 ACP         0.4778
     27 N6         -2.2885    6.1054   -0.5675 N.pl3     1 ACP        -0.8290
     28 N1         -1.0537    6.0229    1.4478 N.pl3     1 ACP        -0.6985
     29 C2         -0.1096    5.3242    2.2908 C.ar      1 ACP         0.6179
     30 N3          0.4468    4.1904    1.9960 N.ar      1 ACP        -0.5105
     31 C4          0.0631    3.6855    0.7877 C.ar      1 ACP         0.2753
     32 HOG2       -3.2225   -1.4487   -5.3830 H         1 ACP         0.4487
     33 HOG3       -0.8693   -2.5904   -4.1940 H         1 ACP         0.4487
     34 H3B1       -0.1087    0.0146   -6.7907 H         1 ACP         0.1088
     35 H3B2       -0.8262    1.4662   -6.0978 H         1 ACP         0.1088
     36 H5'1        1.3501    0.2325   -2.1561 H         1 ACP         0.0327
     37 H5'2        2.1268   -1.3683   -2.0445 H         1 ACP         0.0327
     38 H4'         3.8046   -0.1390   -0.4011 H         1 ACP         0.1275
     39 H3'         1.6787   -1.7627    0.2719 H         1 ACP         0.0637
     40 HO3'        2.2231   -1.2979    2.3952 H         1 ACP         0.4127
     41 H2'         0.0002   -0.0084   -0.0014 H         1 ACP         0.0692
     42 HO2'       -0.6132    0.5577    2.1063 H         1 ACP         0.4431
     43 H1'         1.7718    1.9211    1.6015 H         1 ACP         0.1199
     44 H8         -0.2991    1.7413   -1.9611 H         1 ACP         0.2941
     45 HN61       -2.5167    5.6603   -1.4447 H         1 ACP         0.4754
     46 HN62       -2.7159    6.9882   -0.3270 H         1 ACP         0.4754
     47 H2          0.1059    5.8491    3.2340 H         1 ACP         0.0886
     48 H48        -1.4532    6.9099    1.7401 H         1 ACP         0.4707
@<TRIPOS>BOND
     1    1    2 2
     2    1    3 1
     3    1    4 1
     4    1    8 1
     5    3   32 1
     6    4   33 1
     7    5    6 2
     8    5    7 1
     9    5    8 1
    10    5   12 1
    11    8   34 1
    12    8   35 1
    13    9   10 2
    14    9   11 1
    15    9   12 1
    16    9   13 1
    17   13   14 1
    18   14   15 1
    19   14   36 1
    20   14   37 1
    21   15   16 1
    22   15   17 1
    23   15   38 1
    24   16   21 1
    25   17   18 1
    26   17   19 1
    27   17   39 1
    28   18   40 1
    29   19   20 1
    30   19   21 1
    31   19   41 1
    32   20   42 1
    33   21   22 1
    34   21   43 1
    35   22   23 ar
    36   22   31 ar
    37   23   24 ar
    38   23   44 1
    39   24   25 ar
    40   25   26 ar
    41   25   31 ar
    42   26   27 1
    43   26   28 ar
    44   27   45 1
    45   27   46 1
    46   28   29 ar
    47   28   48 1
    48   29   30 ar
    49   29   47 1
    50   30   31 ar
@<TRIPOS>SUBSTRUCTURE
     1 ACP         1 GROUP 0 A     ****
@<TRIPOS>MOLECULE
[[5-(6-amino-1,8-dihydropurine-6,8-diylium-7-id-9-yl)-3,4-dihydroxy-tetrahydrofuran-2-yl]methoxy-oxido-phosphoryl]oxy-(phosphonomethyl)phosphinate
   48    50     1     0     0
SMALL
USER_CHARGES

@<TRIPOS>ATOM
      1 PG         -0.5722   -2.0140   -5.1640 P.3       1 ACP         1.6558
      2 O1G        -1.8881   -2.3487   -5.7993 O.2       1 ACP        -0.9020
      3 O2G         0.1376   -3.2223   -4.3600 O.3       1 ACP        -0.8036
      4 O3G        -0.6091   -0.8112   -4.0863 O.3       1 ACP        -0.8036
      5 PB          2.4149   -1.0149   -5.8037 P.3       1 ACP         1.4945
      6 O1B         3.1778   -0.6351   -7.0516 O.co2     1 ACP        -0.8481
      7 O2B         2.9035   -2.0826   -4.8525 O.co2     1 ACP        -0.8481
      8 C3B         0.7046   -1.4845   -6.3281 C.3       1 ACP        -0.6636
      9 PA          2.9201    1.2533   -3.9581 P.3       1 ACP         1.6023
     10 O1A         2.0202    2.3074   -3.3502 O.co2     1 ACP        -0.8673
     11 O2A         4.1968    1.6466   -4.6690 O.co2     1 ACP        -0.8673
     12 O3A         2.0284    0.3323   -4.9701 O.3       1 ACP        -0.8150
     13 O5'         3.2885    0.1337   -2.8242 O.3       1 ACP        -0.5522
     14 C5'         2.2816   -0.2918   -1.9206 C.3       1 ACP         0.2181
     15 C4'         2.7248    0.0226   -0.4980 C.3       1 ACP         0.0915
     16 O4'         2.4697    1.4219   -0.2462 O.3       1 ACP        -0.3675
     17 C3'         1.9404   -0.7419    0.5596 C.3       1 ACP         0.0748
     18 O3'         2.7418   -0.8086    1.7389 O.3       1 ACP        -0.5646
     19 C2'         0.7477    0.1630    0.7858 C.3       1 ACP         0.0804
     20 O2'         0.1373   -0.0577    2.0407 O.3       1 ACP        -0.5882
     21 C1'         1.3733    1.5427    0.6747 C.3       1 ACP         0.3809
     22 N9          0.4520    2.5240    0.1767 N.pl3     1 ACP        -0.4412
     23 C8         -0.3054    2.4845   -1.1576 C.ar      1 ACP         0.1936
     24 N7         -1.0755    3.5806   -1.2691 N.2       1 ACP        -0.2746
     25 C5         -0.8043    4.2306   -0.0942 C.ar      1 ACP        -0.1386
     26 C6         -1.4324    5.5335    0.2646 C.ar      1 ACP         0.4778
     27 N6         -2.2885    6.1054   -0.5675 N.pl3     1 ACP        -0.8290
     28 N1         -1.0537    6.0229    1.4478 N.pl3     1 ACP        -0.6985
     29 C2         -0.1096    5.3242    2.2908 C.ar      1 ACP         0.6179
     30 N3          0.4468    4.1904    1.9960 N.ar      1 ACP        -0.5105
     31 C4          0.0631    3.6855    0.7877 C.ar      1 ACP         0.2753
     32 HOG2       -0.3333   -3.6300   -3.6024 H         1 ACP         0.4487
     33 HOG3       -1.1786   -0.9015   -3.2928 H         1 ACP         0.4487
     34 H3B1        0.8324   -2.2848   -7.0657 H         1 ACP         0.1088
     35 H3B2        0.3072   -0.6157   -6.8652 H         1 ACP         0.1088
     36 H5'1        1.3501    0.2325   -2.1561 H         1 ACP         0.0327
     37 H5'2        2.1268   -1.3683   -2.0445 H         1 ACP         0.0327
     38 H4'         3.8046   -0.1390   -0.4011 H         1 ACP         0.1275
     39 H3'         1.6787   -1.7627    0.2719 H         1 ACP         0.0637
     40 HO3'        3.5553   -1.2733    1.4913 H         1 ACP         0.4127
     41 H2'         0.0002   -0.0084   -0.0014 H         1 ACP         0.0692
     42 HO2'       -0.1554   -0.9852    2.0577 H         1 ACP         0.4431
     43 H1'         1.7718    1.9211    1.6015 H         1 ACP         0.1199
     44 H8         -0.2991    1.7413   -1.9611 H         1 ACP         0.2941
     45 HN61       -2.5167    5.6603   -1.4447 H         1 ACP         0.4754
     46 HN62       -2.7159    6.9882   -0.3270 H         1 ACP         0.4754
     47 H2          0.1059    5.8491    3.2340 H         1 ACP         0.0886
     48 H48        -1.4532    6.9099    1.7401 H         1 ACP         0.4707
@<TRIPOS>BOND
     1    1    2 2
     2    1    3 1
     3    1    4 1
     4    1    8 1
     5    3   32 1
     6    4   33 1
     7    5    6 2
     8    5    7 1
     9    5    8 1
    10    5   12 1
    11    8   34 1
    12    8   35 1
    13    9   10 2
    14    9   11 1
    15    9   12 1
    16    9   13 1
    17   13   14 1
    18   14   15 1
    19   14   36 1
    20   14   37 1
    21   15   16 1
    22   15   17 1
    23   15   38 1
    24   16   21 1
    25   17   18 1
    26   17   19 1
    27   17   39 1
    28   18   40 1
    29   19   20 1
    30   19   21 1
    31   19   41 1
    32   20   42 1
    33   21   22 1
    34   21   43 1
    35   22   23 ar
    36   22   31 ar
    37   23   24 ar
    38   23   44 1
    39   24   25 ar
    40   25   26 ar
    41   25   31 ar
    42   26   27 1
    43   26   28 ar
    44   27   45 1
    45   27   46 1
    46   28   29 ar
    47   28   48 1
    48   29   30 ar
    49   29   47 1
    50   30   31 ar
@<TRIPOS>SUBSTRUCTURE
     1 ACP         1 GROUP 0 A     ****
@<TRIPOS>MOLECULE
[[5-(6-amino-1,8-dihydropurine-6,8-diylium-7-id-9-yl)-3,4-dihydroxy-tetrahydrofuran-2-yl]methoxy-oxido-phosphoryl]oxy-(phosphonomethyl)phosphinate
   48    50     1     0     0
SMALL
USER_CHARGES

@<TRIPOS>ATOM
      1 PG          7.9908    0.2574   -1.1629 P.3       1 ACP         1.6558
      2 O1G         8.9895    0.9248   -2.0597 O.2       1 ACP        -0.9020
      3 O2G         6.6242    1.0817   -0.9112 O.3       1 ACP        -0.8036
      4 O3G         8.5131   -0.0758    0.3290 O.3       1 ACP        -0.8036
      5 PB          6.5318   -1.5582   -3.3776 P.3       1 ACP         1.4945
      6 O1B         6.2047   -3.0268   -3.5189 O.co2     1 ACP        -0.8481
      7 O2B         7.3236   -0.8037   -4.4204 O.co2     1 ACP        -0.8481
      8 C3B         7.4045   -1.3439   -1.7610 C.3       1 ACP        -0.6636
      9 PA          3.9531   -0.2088   -3.9567 P.3       1 ACP         1.6023
     10 O1A         3.2272   -1.4155   -4.5112 O.co2     1 ACP        -0.8673
     11 O2A         4.4895    0.8608   -4.8830 O.co2     1 ACP        -0.8673
     12 O3A         5.1759   -0.7310   -3.0082 O.3       1 ACP        -0.8150
     13 O5'         3.0199    0.5139   -2.8245 O.3       1 ACP        -0.5522
     14 C5'         2.2816   -0.2918   -1.9206 C.3       1 ACP         0.2181
     15 C4'         2.7248    0.0226   -0.4980 C.3       1 ACP         0.0915
     16 O4'         2.4697    1.4219   -0.2462 O.3       1 ACP        -0.3675
     17 C3'         1.9404   -0.7419    0.5596 C.3       1 ACP         0.0748
     18 O3'         2.7418   -0.8086    1.7389 O.3       1 ACP        -0.5646
     19 C2'         0.7477    0.1630    0.7858 C.3       1 ACP         0.0804
     20 O2'         0.1373   -0.0577    2.0407 O.3       1 ACP        -0.5882
     21 C1'         1.3733    1.5427    0.6747 C.3       1 ACP         0.3809
     22 N9          0.4520    2.5240    0.1767 N.pl3     1 ACP        -0.4412
     23 C8         -0.3054    2.4845   -1.1576 C.ar      1 ACP         0.1936
     24 N7         -1.0755    3.5806   -1.2691 N.2       1 ACP        -0.2746
     25 C5         -0.8043    4.2306   -0.0942 C.ar      1 ACP        -0.1386
     26 C6         -1.4324    5.5335    0.2646 C.ar      1 ACP         0.4778
     27 N6         -2.2885    6.1054   -0.5675 N.pl3     1 ACP        -0.8290
     28 N1         -1.0537    6.0229    1.4478 N.pl3     1 ACP        -0.6985
     29 C2         -0.1096    5.3242    2.2908 C.ar      1 ACP         0.6179
     30 N3          0.4468    4.1904    1.9960 N.ar      1 ACP        -0.5105
     31 C4          0.0631    3.6855    0.7877 C.ar      1 ACP         0.2753
     32 HOG2        6.6746    1.9708   -0.5000 H         1 ACP         0.4487
     33 HOG3        8.8123    0.6609    0.9033 H         1 ACP         0.4487
     34 H3B1        8.2673   -2.0184   -1.8007 H         1 ACP         0.1088
     35 H3B2        6.7240   -1.7403   -0.9989 H         1 ACP         0.1088
     36 H5'1        1.2154   -0.0780   -2.0455 H         1 ACP         0.0327
     37 H5'2        2.4646   -1.3453   -2.1548 H         1 ACP         0.0327
     38 H4'         3.8046   -0.1390   -0.4011 H         1 ACP         0.1275
     39 H3'         1.6787   -1.7627    0.2719 H         1 ACP         0.0637
     40 HO3'        2.2231   -1.2979    2.3952 H         1 ACP         0.4127
     41 H2'         0.0002   -0.0084   -0.0014 H         1 ACP         0.0692
     42 HO2'       -0.1554   -0.9852    2.0577 H         1 ACP         0.4431
     43 H1'         1.7718    1.9211    1.6015 H         1 ACP         0.1199
     44 H8         -0.2991    1.7413   -1.9611 H         1 ACP         0.2941
     45 HN61       -2.5167    5.6603   -1.4447 H         1 ACP         0.4754
     46 HN62       -2.7159    6.9882   -0.3270 H         1 ACP         0.4754
     47 H2          0.1059    5.8491    3.2340 H         1 ACP         0.0886
     48 H48        -1.4532    6.9099    1.7401 H         1 ACP         0.4707
@<TRIPOS>BOND
     1    1    2 2
     2    1    3 1
     3    1    4 1
     4    1    8 1
     5    3   32 1
     6    4   33 1
     7    5    6 2
     8    5    7 1
     9    5    8 1
    10    5   12 1
    11    8   34 1
    12    8   35 1
    13    9   10 2
    14    9   11 1
    15    9   12 1
    16    9   13 1
    17   13   14 1
    18   14   15 1
    19   14   36 1
    20   14   37 1
    21   15   16 1
    22   15   17 1
    23   15   38 1
    24   16   21 1
    25   17   18 1
    26   17   19 1
    27   17   39 1
    28   18   40 1
    29   19   20 1
    30   19   21 1
    31   19   41 1
    32   20   42 1
    33   21   22 1
    34   21   43 1
    35   22   23 ar
    36   22   31 ar
    37   23   24 ar
    38   23   44 1
    39   24   25 ar
    40   25   26 ar
    41   25   31 ar
    42   26   27 1
    43   26   28 ar
    44   27   45 1
    45   27   46 1
    46   28   29 ar
    47   28   48 1
    48   29   30 ar
    49   29   47 1
    50   30   31 ar
@<TRIPOS>SUBSTRUCTURE
     1 ACP         1 GROUP 0 A     ****
@<TRIPOS>MOLECULE
[[5-(6-amino-1,8-dihydropurine-6,8-diylium-7-id-9-yl)-3,4-dihydroxy-tetrahydrofuran-2-yl]methoxy-oxido-phosphoryl]oxy-(phosphonomethyl)phosphinate
   48    50     1     0     0
SMALL
USER_CHARGES

@<TRIPOS>ATOM
      1 PG          0.4040   -0.2540   -6.9120 P.3       1 ACP         1.6558
      2 O1G        -1.0254   -0.0989   -7.3365 O.2       1 ACP        -0.9020
      3 O2G         0.8256    0.5622   -5.5830 O.3       1 ACP        -0.8036
      4 O3G         1.5043    0.2030   -8.0029 O.3       1 ACP        -0.8036
      5 PB          2.5921   -2.4153   -5.9788 P.3       1 ACP         1.4945
      6 O1B         3.5422   -2.0117   -7.0824 O.co2     1 ACP        -0.8481
      7 O2B         2.5260   -3.8283   -5.4471 O.co2     1 ACP        -0.8481
      8 C3B         0.8872   -1.9519   -6.5261 C.3       1 ACP        -0.6636
      9 PA          3.9981   -0.9679   -3.8029 P.3       1 ACP         1.6023
     10 O1A         5.0312   -0.2798   -4.6687 O.co2     1 ACP        -0.8673
     11 O2A         4.3716   -2.1736   -2.9681 O.co2     1 ACP        -0.8673
     12 O3A         2.7194   -1.3641   -4.7386 O.3       1 ACP        -0.8150
     13 O5'         3.2885    0.1337   -2.8242 O.3       1 ACP        -0.5522
     14 C5'         2.2816   -0.2918   -1.9206 C.3       1 ACP         0.2181
     15 C4'         2.7248    0.0226   -0.4980 C.3       1 ACP         0.0915
     16 O4'         2.4697    1.4219   -0.2462 O.3       1 ACP        -0.3675
     17 C3'         1.9404   -0.7419    0.5596 C.3       1 ACP         0.0748
     18 O3'         2.7418   -0.8086    1.7389 O.3       1 ACP        -0.5646
     19 C2'         0.7477    0.1630    0.7858 C.3       1 ACP         0.0804
     20 O2'         0.1373   -0.0577    2.0407 O.3       1 ACP        -0.5882
     21 C1'         1.3733    1.5427    0.6747 C.3       1 ACP         0.3809
     22 N9          0.4520    2.5240    0.1767 N.pl3     1 ACP        -0.4412
     23 C8          0.1798    2.8712   -1.2933 C.ar      1 ACP         0.1936
     24 N7         -0.7494    3.8400   -1.3610 N.2       1 ACP        -0.2746
     25 C5         -1.0173    4.0603   -0.0358 C.ar      1 ACP        -0.1386
     26 C6         -2.0105    5.0717    0.4241 C.ar      1 ACP         0.4778
     27 N6         -2.6723    5.7982   -0.4628 N.pl3     1 ACP        -0.8290
     28 N1         -2.1445    5.1522    1.7502 N.pl3     1 ACP        -0.6985
     29 C2         -1.3755    4.3143    2.6426 C.ar      1 ACP         0.6179
     30 N3         -0.5075    3.4292    2.2616 N.ar      1 ACP        -0.5105
     31 C4         -0.3667    3.3425    0.9070 C.ar      1 ACP         0.2753
     32 HOG2        0.7376    1.5391   -5.5775 H         1 ACP         0.4487
     33 HOG3        1.5054    1.1324   -8.3161 H         1 ACP         0.4487
     34 H3B1        0.2165   -2.3164   -5.7399 H         1 ACP         0.1088
     35 H3B2        0.6867   -2.5526   -7.4207 H         1 ACP         0.1088
     36 H5'1        1.3501    0.2325   -2.1561 H         1 ACP         0.0327
     37 H5'2        2.1268   -1.3683   -2.0445 H         1 ACP         0.0327
     38 H4'         3.8046   -0.1390   -0.4011 H         1 ACP         0.1275
     39 H3'         1.6787   -1.7627    0.2719 H         1 ACP         0.0637
     40 HO3'        3.5553   -1.2733    1.4913 H         1 ACP         0.4127
     41 H2'         0.0002   -0.0084   -0.0014 H         1 ACP         0.0692
     42 HO2'       -0.6132    0.5577    2.1063 H         1 ACP         0.4431
     43 H1'         1.7718    1.9211    1.6015 H         1 ACP         0.1199
     44 H8          0.6089    2.4651   -2.2147 H         1 ACP         0.2941
     45 HN61       -2.5055    5.6680   -1.4503 H         1 ACP         0.4754
     46 HN62       -3.3462    6.4841   -0.1542 H         1 ACP         0.4754
     47 H2         -1.5932    4.4937    3.7066 H         1 ACP         0.0886
     48 H48        -2.8098    5.8270    2.1160 H         1 ACP         0.4707
@<TRIPOS>BOND
     1    1    2 2
     2    1    3 1
     3    1    4 1
     4    1    8 1
     5    3   32 1
     6    4   33 1
     7    5    6 2
     8    5    7 1
     9    5    8 1
    10    5   12 1
    11    8   34 1
    12    8   35 1
    13    9   10 2
    14    9   11 1
    15    9   12 1
    16    9   13 1
    17   13   14 1
    18   14   15 1
    19   14   36 1
    20   14   37 1
    21   15   16 1
    22   15   17 1
    23   15   38 1
    24   16   21 1
    25   17   18 1
    26   17   19 1
    27   17   39 1
    28   18   40 1
    29   19   20 1
    30   19   21 1
    31   19   41 1
    32   20   42 1
    33   21   22 1
    34   21   43 1
    35   22   23 ar
    36   22   31 ar
    37   23   24 ar
    38   23   44 1
    39   24   25 ar
    40   25   26 ar
    41   25   31 ar
    42   26   27 1
    43   26   28 ar
    44   27   45 1
    45   27   46 1
    46   28   29 ar
    47   28   48 1
    48   29   30 ar
    49   29   47 1
    50   30   31 ar
@<TRIPOS>SUBSTRUCTURE
     1 ACP         1 GROUP 0 A     ****
@<TRIPOS>MOLECULE
[[5-(6-amino-1,8-dihydropurine-6,8-diylium-7-id-9-yl)-3,4-dihydroxy-tetrahydrofuran-2-yl]methoxy-oxido-phosphoryl]oxy-(phosphonomethyl)phosphinate
   48    50     1     0     0
SMALL
USER_CHARGES

@<TRIPOS>ATOM
      1 PG          3.5590    0.7466   -6.9726 P.3       1 ACP         1.6558
      2 O1G         4.2191    1.2739   -8.2110 O.2       1 ACP        -0.9020
      3 O2G         2.0348    1.2289   -6.7396 O.3       1 ACP        -0.8036
      4 O3G         4.2924    1.1219   -5.5831 O.3       1 ACP        -0.8036
      5 PB          2.6691   -1.9587   -5.4829 P.3       1 ACP         1.4945
      6 O1B         2.7589   -3.4355   -5.7908 O.co2     1 ACP        -0.8481
      7 O2B         1.3564   -1.2770   -5.1737 O.co2     1 ACP        -0.8481
      8 C3B         3.4390   -1.0551   -6.9012 C.3       1 ACP        -0.6636
      9 PA          3.9659   -2.1095   -2.8180 P.3       1 ACP         1.6023
     10 O1A         5.0701   -1.3086   -2.1624 O.co2     1 ACP        -0.8673
     11 O2A         4.0235   -3.6214   -2.8472 O.co2     1 ACP        -0.8673
     12 O3A         3.7737   -1.5707   -4.3478 O.3       1 ACP        -0.8150
     13 O5'         2.5238   -1.6632   -2.1888 O.3       1 ACP        -0.5522
     14 C5'         2.2816   -0.2918   -1.9206 C.3       1 ACP         0.2181
     15 C4'         2.7248    0.0226   -0.4980 C.3       1 ACP         0.0915
     16 O4'         2.4697    1.4219   -0.2462 O.3       1 ACP        -0.3675
     17 C3'         1.9404   -0.7419    0.5596 C.3       1 ACP         0.0748
     18 O3'         2.7418   -0.8086    1.7389 O.3       1 ACP        -0.5646
     19 C2'         0.7477    0.1630    0.7858 C.3       1 ACP         0.0804
     20 O2'         0.1373   -0.0577    2.0407 O.3       1 ACP        -0.5882
     21 C1'         1.3733    1.5427    0.6747 C.3       1 ACP         0.3809
     22 N9          0.4520    2.5240    0.1767 N.pl3     1 ACP        -0.4412
     23 C8          0.1798    2.8712   -1.2933 C.ar      1 ACP         0.1936
     24 N7         -0.7494    3.8400   -1.3610 N.2       1 ACP        -0.2746
     25 C5         -1.0173    4.0603   -0.0358 C.ar      1 ACP        -0.1386
     26 C6         -2.0105    5.0717    0.4241 C.ar      1 ACP         0.4778
     27 N6         -2.6723    5.7982   -0.4628 N.pl3     1 ACP        -0.8290
     28 N1         -2.1445    5.1522    1.7502 N.pl3     1 ACP        -0.6985
     29 C2         -1.3755    4.3143    2.6426 C.ar      1 ACP         0.6179
     30 N3         -0.5075    3.4292    2.2616 N.ar      1 ACP        -0.5105
     31 C4         -0.3667    3.3425    0.9070 C.ar      1 ACP         0.2753
     32 HOG2        1.8479    2.1878   -6.6528 H         1 ACP         0.4487
     33 HOG3        4.4030    2.0668   -5.3442 H         1 ACP         0.4487
     34 H3B1        2.8932   -1.3861   -7.7920 H         1 ACP         0.1088
     35 H3B2        4.4588   -1.4472   -6.9874 H         1 ACP         0.1088
     36 H5'1        2.8430    0.3138   -2.6391 H         1 ACP         0.0327
     37 H5'2        1.2126   -0.0907   -2.0421 H         1 ACP         0.0327
     38 H4'         3.8046   -0.1390   -0.4011 H         1 ACP         0.1275
     39 H3'         1.6787   -1.7627    0.2719 H         1 ACP         0.0637
     40 HO3'        2.2231   -1.2979    2.3952 H         1 ACP         0.4127
     41 H2'         0.0002   -0.0084   -0.0014 H         1 ACP         0.0692
     42 HO2'       -0.6132    0.5577    2.1063 H         1 ACP         0.4431
     43 H1'         1.7718    1.9211    1.6015 H         1 ACP         0.1199
     44 H8          0.6089    2.4651   -2.2147 H         1 ACP         0.2941
     45 HN61       -2.5055    5.6680   -1.4503 H         1 ACP         0.4754
     46 HN62       -3.3462    6.4841   -0.1542 H         1 ACP         0.4754
     47 H2         -1.5932    4.4937    3.7066 H         1 ACP         0.0886
     48 H48        -2.8098    5.8270    2.1160 H         1 ACP         0.4707
@<TRIPOS>BOND
     1    1    2 2
     2    1    3 1
     3    1    4 1
     4    1    8 1
     5    3   32 1
     6    4   33 1
     7    5    6 2
     8    5    7 1
     9    5    8 1
    10    5   12 1
    11    8   34 1
    12    8   35 1
    13    9   10 2
    14    9   11 1
    15    9   12 1
    16    9   13 1
    17   13   14 1
    18   14   15 1
    19   14   36 1
    20   14   37 1
    21   15   16 1
    22   15   17 1
    23   15   38 1
    24   16   21 1
    25   17   18 1
    26   17   19 1
    27   17   39 1
    28   18   40 1
    29   19   20 1
    30   19   21 1
    31   19   41 1
    32   20   42 1
    33   21   22 1
    34   21   43 1
    35   22   23 ar
    36   22   31 ar
    37   23   24 ar
    38   23   44 1
    39   24   25 ar
    40   25   26 ar
    41   25   31 ar
    42   26   27 1
    43   26   28 ar
    44   27   45 1
    45   27   46 1
    46   28   29 ar
    47   28   48 1
    48   29   30 ar
    49   29   47 1
    50   30   31 ar
@<TRIPOS>SUBSTRUCTURE
     1 ACP         1 GROUP 0 A     ****
@<TRIPOS>MOLECULE
[[5-(6-amino-1,8-dihydropurine-6,8-diylium-7-id-9-yl)-3,4-dihydroxy-tetrahydrofuran-2-yl]methoxy-oxido-phosphoryl]oxy-(phosphonomethyl)phosphinate
   48    50     1     0     0
SMALL
USER_CHARGES

@<TRIPOS>ATOM
      1 PG         -2.3700   -2.5370   -3.1673 P.3       1 ACP         1.6558
      2 O1G        -3.7051   -2.8369   -3.7797 O.2       1 ACP        -0.9020
      3 O2G        -2.3908   -2.2031   -1.5867 O.3       1 ACP        -0.8036
      4 O3G        -1.5790   -1.2834   -3.8096 O.3       1 ACP        -0.8036
      5 PB          0.5450   -3.7732   -2.6156 P.3       1 ACP         1.4945
      6 O1B         1.2294   -5.0876   -2.9116 O.co2     1 ACP        -0.8481
      7 O2B         0.4436   -3.2131   -1.2158 O.co2     1 ACP        -0.8481
      8 C3B        -1.1734   -3.8855   -3.2903 C.3       1 ACP        -0.6636
      9 PA          2.6171   -2.0488   -3.8563 P.3       1 ACP         1.6023
     10 O1A         2.5471   -0.8889   -4.8260 O.co2     1 ACP        -0.8673
     11 O2A         3.5415   -3.2178   -4.1184 O.co2     1 ACP        -0.8673
     12 O3A         1.1061   -2.6262   -3.6299 O.3       1 ACP        -0.8150
     13 O5'         2.9203   -1.4822   -2.3523 O.3       1 ACP        -0.5522
     14 C5'         2.2816   -0.2918   -1.9206 C.3       1 ACP         0.2181
     15 C4'         2.7248    0.0226   -0.4980 C.3       1 ACP         0.0915
     16 O4'         2.4697    1.4219   -0.2462 O.3       1 ACP        -0.3675
     17 C3'         1.9404   -0.7419    0.5596 C.3       1 ACP         0.0748
     18 O3'         2.7418   -0.8086    1.7389 O.3       1 ACP        -0.5646
     19 C2'         0.7477    0.1630    0.7858 C.3       1 ACP         0.0804
     20 O2'         0.1373   -0.0577    2.0407 O.3       1 ACP        -0.5882
     21 C1'         1.3733    1.5427    0.6747 C.3       1 ACP         0.3809
     22 N9          0.4520    2.5240    0.1767 N.pl3     1 ACP        -0.4412
     23 C8         -0.3054    2.4845   -1.1576 C.ar      1 ACP         0.1936
     24 N7         -1.0755    3.5806   -1.2691 N.2       1 ACP        -0.2746
     25 C5         -0.8043    4.2306   -0.0942 C.ar      1 ACP        -0.1386
     26 C6         -1.4324    5.5335    0.2646 C.ar      1 ACP         0.4778
     27 N6         -2.2885    6.1054   -0.5675 N.pl3     1 ACP        -0.8290
     28 N1         -1.0537    6.0229    1.4478 N.pl3     1 ACP        -0.6985
     29 C2         -0.1096    5.3242    2.2908 C.ar      1 ACP         0.6179
     30 N3          0.4468    4.1904    1.9960 N.ar      1 ACP        -0.5105
     31 C4          0.0631    3.6855    0.7877 C.ar      1 ACP         0.2753
     32 HOG2       -2.9142   -1.4365   -1.2699 H         1 ACP         0.4487
     33 HOG3       -1.9957   -0.3958   -3.7856 H         1 ACP         0.4487
     34 H3B1       -1.6187   -4.7674   -2.8159 H         1 ACP         0.1088
     35 H3B2       -1.0620   -4.1180   -4.3555 H         1 ACP         0.1088
     36 H5'1        2.5581    0.5234   -2.5967 H         1 ACP         0.0327
     37 H5'2        1.1975   -0.4371   -1.9608 H         1 ACP         0.0327
     38 H4'         3.8046   -0.1390   -0.4011 H         1 ACP         0.1275
     39 H3'         1.6787   -1.7627    0.2719 H         1 ACP         0.0637
     40 HO3'        2.2231   -1.2979    2.3952 H         1 ACP         0.4127
     41 H2'         0.0002   -0.0084   -0.0014 H         1 ACP         0.0692
     42 HO2'       -0.6132    0.5577    2.1063 H         1 ACP         0.4431
     43 H1'         1.7718    1.9211    1.6015 H         1 ACP         0.1199
     44 H8         -0.2991    1.7413   -1.9611 H         1 ACP         0.2941
     45 HN61       -2.5167    5.6603   -1.4447 H         1 ACP         0.4754
     46 HN62       -2.7159    6.9882   -0.3270 H         1 ACP         0.4754
     47 H2          0.1059    5.8491    3.2340 H         1 ACP         0.0886
     48 H48        -1.4532    6.9099    1.7401 H         1 ACP         0.4707
@<TRIPOS>BOND
     1    1    2 2
     2    1    3 1
     3    1    4 1
     4    1    8 1
     5    3   32 1
     6    4   33 1
     7    5    6 2
     8    5    7 1
     9    5    8 1
    10    5   12 1
    11    8   34 1
    12    8   35 1
    13    9   10 2
    14    9   11 1
    15    9   12 1
    16    9   13 1
    17   13   14 1
    18   14   15 1
    19   14   36 1
    20   14   37 1
    21   15   16 1
    22   15   17 1
    23   15   38 1
    24   16   21 1
    25   17   18 1
    26   17   19 1
    27   17   39 1
    28   18   40 1
    29   19   20 1
    30   19   21 1
    31   19   41 1
    32   20   42 1
    33   21   22 1
    34   21   43 1
    35   22   23 ar
    36   22   31 ar
    37   23   24 ar
    38   23   44 1
    39   24   25 ar
    40   25   26 ar
    41   25   31 ar
    42   26   27 1
    43   26   28 ar
    44   27   45 1
    45   27   46 1
    46   28   29 ar
    47   28   48 1
    48   29   30 ar
    49   29   47 1
    50   30   31 ar
@<TRIPOS>SUBSTRUCTURE
     1 ACP         1 GROUP 0 A     ****
@<TRIPOS>MOLECULE
[[5-(6-amino-1,8-dihydropurine-6,8-diylium-7-id-9-yl)-3,4-dihydroxy-tetrahydrofuran-2-yl]methoxy-oxido-phosphoryl]oxy-(phosphonomethyl)phosphinate
   48    50     1     0     0
SMALL
USER_CHARGES

@<TRIPOS>ATOM
      1 PG          1.9906   -4.1519   -5.0839 P.3       1 ACP         1.6558
      2 O1G         1.3031   -3.4013   -3.9834 O.2       1 ACP        -0.9020
      3 O2G         1.0202   -4.7415   -6.2333 O.3       1 ACP        -0.8036
      4 O3G         2.8483   -5.4380   -4.6149 O.3       1 ACP        -0.8036
      5 PB          4.6697   -2.3830   -5.2369 P.3       1 ACP         1.4945
      6 O1B         5.4211   -1.6617   -6.3317 O.co2     1 ACP        -0.8481
      7 O2B         5.3255   -3.4222   -4.3574 O.co2     1 ACP        -0.8481
      8 C3B         3.1909   -3.1744   -6.0164 C.3       1 ACP        -0.6636
      9 PA          4.4356   -0.0486   -3.4198 P.3       1 ACP         1.6023
     10 O1A         5.0324    0.9810   -4.3549 O.co2     1 ACP        -0.8673
     11 O2A         5.2456   -0.6069   -2.2700 O.co2     1 ACP        -0.8673
     12 O3A         3.8781   -1.2974   -4.3128 O.3       1 ACP        -0.8150
     13 O5'         3.0199    0.5139   -2.8245 O.3       1 ACP        -0.5522
     14 C5'         2.2816   -0.2918   -1.9206 C.3       1 ACP         0.2181
     15 C4'         2.7248    0.0226   -0.4980 C.3       1 ACP         0.0915
     16 O4'         2.4697    1.4219   -0.2462 O.3       1 ACP        -0.3675
     17 C3'         1.9404   -0.7419    0.5596 C.3       1 ACP         0.0748
     18 O3'         2.7418   -0.8086    1.7389 O.3       1 ACP        -0.5646
     19 C2'         0.7477    0.1630    0.7858 C.3       1 ACP         0.0804
     20 O2'         0.1373   -0.0577    2.0407 O.3       1 ACP        -0.5882
     21 C1'         1.3733    1.5427    0.6747 C.3       1 ACP         0.3809
     22 N9          0.4520    2.5240    0.1767 N.pl3     1 ACP        -0.4412
     23 C8          0.1798    2.8712   -1.2933 C.ar      1 ACP         0.1936
     24 N7         -0.7494    3.8400   -1.3610 N.2       1 ACP        -0.2746
     25 C5         -1.0173    4.0603   -0.0358 C.ar      1 ACP        -0.1386
     26 C6         -2.0105    5.0717    0.4241 C.ar      1 ACP         0.4778
     27 N6         -2.6723    5.7982   -0.4628 N.pl3     1 ACP        -0.8290
     28 N1         -2.1445    5.1522    1.7502 N.pl3     1 ACP        -0.6985
     29 C2         -1.3755    4.3143    2.6426 C.ar      1 ACP         0.6179
     30 N3         -0.5075    3.4292    2.2616 N.ar      1 ACP        -0.5105
     31 C4         -0.3667    3.3425    0.9070 C.ar      1 ACP         0.2753
     32 HOG2        0.3218   -5.3828   -5.9824 H         1 ACP         0.4487
     33 HOG3        2.3905   -6.1708   -4.1507 H         1 ACP         0.4487
     34 H3B1        3.5852   -3.8104   -6.8169 H         1 ACP         0.1088
     35 H3B2        2.6359   -2.3615   -6.4984 H         1 ACP         0.1088
     36 H5'1        1.2154   -0.0780   -2.0455 H         1 ACP         0.0327
     37 H5'2        2.4646   -1.3453   -2.1548 H         1 ACP         0.0327
     38 H4'         3.8046   -0.1390   -0.4011 H         1 ACP         0.1275
     39 H3'         1.6787   -1.7627    0.2719 H         1 ACP         0.0637
     40 HO3'        2.2231   -1.2979    2.3952 H         1 ACP         0.4127
     41 H2'         0.0002   -0.0084   -0.0014 H         1 ACP         0.0692
     42 HO2'       -0.6132    0.5577    2.1063 H         1 ACP         0.4431
     43 H1'         1.7718    1.9211    1.6015 H         1 ACP         0.1199
     44 H8          0.6089    2.4651   -2.2147 H         1 ACP         0.2941
     45 HN61       -2.5055    5.6680   -1.4503 H         1 ACP         0.4754
     46 HN62       -3.3462    6.4841   -0.1542 H         1 ACP         0.4754
     47 H2         -1.5932    4.4937    3.7066 H         1 ACP         0.0886
     48 H48        -2.8098    5.8270    2.1160 H         1 ACP         0.4707
@<TRIPOS>BOND
     1    1    2 2
     2    1    3 1
     3    1    4 1
     4    1    8 1
     5    3   32 1
     6    4   33 1
     7    5    6 2
     8    5    7 1
     9    5    8 1
    10    5   12 1
    11    8   34 1
    12    8   35 1
    13    9   10 2
    14    9   11 1
    15    9   12 1
    16    9   13 1
    17   13   14 1
    18   14   15 1
    19   14   36 1
    20   14   37 1
    21   15   16 1
    22   15   17 1
    23   15   38 1
    24   16   21 1
    25   17   18 1
    26   17   19 1
    27   17   39 1
    28   18   40 1
    29   19   20 1
    30   19   21 1
    31   19   41 1
    32   20   42 1
    33   21   22 1
    34   21   43 1
    35   22   23 ar
    36   22   31 ar
    37   23   24 ar
    38   23   44 1
    39   24   25 ar
    40   25   26 ar
    41   25   31 ar
    42   26   27 1
    43   26   28 ar
    44   27   45 1
    45   27   46 1
    46   28   29 ar
    47   28   48 1
    48   29   30 ar
    49   29   47 1
    50   30   31 ar
@<TRIPOS>SUBSTRUCTURE
     1 ACP         1 GROUP 0 A     ****
@<TRIPOS>MOLECULE
[[5-(6-amino-1,8-dihydropurine-6,8-diylium-7-id-9-yl)-3,4-dihydroxy-tetrahydrofuran-2-yl]methoxy-oxido-phosphoryl]oxy-(phosphonomethyl)phosphinate
   48    50     1     0     0
SMALL
USER_CHARGES

@<TRIPOS>ATOM
      1 PG          2.2118   -3.9075   -5.6052 P.3       1 ACP         1.6558
      2 O1G         3.0508   -4.0727   -6.8365 O.2       1 ACP        -0.9020
      3 O2G         2.9989   -3.3875   -4.2936 O.3       1 ACP        -0.8036
      4 O3G         1.4623   -5.2438   -5.0930 O.3       1 ACP        -0.8036
      5 PB          1.1350   -0.9349   -6.1834 P.3       1 ACP         1.4945
      6 O1B        -0.2233   -0.2750   -6.2390 O.co2     1 ACP        -0.8481
      7 O2B         2.1070   -0.8802   -7.3391 O.co2     1 ACP        -0.8481
      8 C3B         0.8619   -2.7185   -5.7768 C.3       1 ACP        -0.6636
      9 PA          2.3308    0.9611   -4.2388 P.3       1 ACP         1.6023
     10 O1A         1.0771    1.7604   -3.9568 O.co2     1 ACP        -0.8673
     11 O2A         3.4129    1.5166   -5.1392 O.co2     1 ACP        -0.8673
     12 O3A         1.8925   -0.5072   -4.8040 O.3       1 ACP        -0.8150
     13 O5'         3.0199    0.5139   -2.8245 O.3       1 ACP        -0.5522
     14 C5'         2.2816   -0.2918   -1.9206 C.3       1 ACP         0.2181
     15 C4'         2.7248    0.0226   -0.4980 C.3       1 ACP         0.0915
     16 O4'         2.4697    1.4219   -0.2462 O.3       1 ACP        -0.3675
     17 C3'         1.9404   -0.7419    0.5596 C.3       1 ACP         0.0748
     18 O3'         2.7418   -0.8086    1.7389 O.3       1 ACP        -0.5646
     19 C2'         0.7477    0.1630    0.7858 C.3       1 ACP         0.0804
     20 O2'         0.1373   -0.0577    2.0407 O.3       1 ACP        -0.5882
     21 C1'         1.3733    1.5427    0.6747 C.3       1 ACP         0.3809
     22 N9          0.4520    2.5240    0.1767 N.pl3     1 ACP        -0.4412
     23 C8         -1.0660    2.5608    0.3999 C.ar      1 ACP         0.1936
     24 N7         -1.5852    3.6333   -0.2221 N.2       1 ACP        -0.2746
     25 C5         -0.4682    4.1996   -0.7771 C.ar      1 ACP        -0.1386
     26 C6         -0.5216    5.4476   -1.5899 C.ar      1 ACP         0.4778
     27 N6         -1.6813    6.0510   -1.7982 N.pl3     1 ACP        -0.8290
     28 N1          0.6621    5.8575   -2.0523 N.pl3     1 ACP        -0.6985
     29 C2          1.8795    5.1301   -1.7717 C.ar      1 ACP         0.6179
     30 N3          1.9458    4.0434   -1.0670 N.ar      1 ACP        -0.5105
     31 C4          0.7388    3.6199   -0.5917 C.ar      1 ACP         0.2753
     32 HOG2        3.7397   -3.9245   -3.9401 H         1 ACP         0.4487
     33 HOG3        2.0008   -6.0252   -4.8450 H         1 ACP         0.4487
     34 H3B1        0.1844   -3.0963   -6.5508 H         1 ACP         0.1088
     35 H3B2        0.3053   -2.7282   -4.8327 H         1 ACP         0.1088
     36 H5'1        1.2154   -0.0780   -2.0455 H         1 ACP         0.0327
     37 H5'2        2.4646   -1.3453   -2.1548 H         1 ACP         0.0327
     38 H4'         3.8046   -0.1390   -0.4011 H         1 ACP         0.1275
     39 H3'         1.6787   -1.7627    0.2719 H         1 ACP         0.0637
     40 HO3'        2.2231   -1.2979    2.3952 H         1 ACP         0.4127
     41 H2'         0.0002   -0.0084   -0.0014 H         1 ACP         0.0692
     42 HO2'       -0.1554   -0.9852    2.0577 H         1 ACP         0.4431
     43 H1'         1.7718    1.9211    1.6015 H         1 ACP         0.1199
     44 H8         -1.7235    1.8833    0.9537 H         1 ACP         0.2941
     45 HN61       -2.5296    5.6672   -1.4072 H         1 ACP         0.4754
     46 HN62       -1.7205    6.8969   -2.3483 H         1 ACP         0.4754
     47 H2          2.7750    5.5878   -2.2190 H         1 ACP         0.0886
     48 H48         0.6808    6.7046   -2.6128 H         1 ACP         0.4707
@<TRIPOS>BOND
     1    1    2 2
     2    1    3 1
     3    1    4 1
     4    1    8 1
     5    3   32 1
     6    4   33 1
     7    5    6 2
     8    5    7 1
     9    5    8 1
    10    5   12 1
    11    8   34 1
    12    8   35 1
    13    9   10 2
    14    9   11 1
    15    9   12 1
    16    9   13 1
    17   13   14 1
    18   14   15 1
    19   14   36 1
    20   14   37 1
    21   15   16 1
    22   15   17 1
    23   15   38 1
    24   16   21 1
    25   17   18 1
    26   17   19 1
    27   17   39 1
    28   18   40 1
    29   19   20 1
    30   19   21 1
    31   19   41 1
    32   20   42 1
    33   21   22 1
    34   21   43 1
    35   22   23 ar
    36   22   31 ar
    37   23   24 ar
    38   23   44 1
    39   24   25 ar
    40   25   26 ar
    41   25   31 ar
    42   26   27 1
    43   26   28 ar
    44   27   45 1
    45   27   46 1
    46   28   29 ar
    47   28   48 1
    48   29   30 ar
    49   29   47 1
    50   30   31 ar
@<TRIPOS>SUBSTRUCTURE
     1 ACP         1 GROUP 0 A     ****
@<TRIPOS>MOLECULE
[[5-(6-amino-1,8-dihydropurine-6,8-diylium-7-id-9-yl)-3,4-dihydroxy-tetrahydrofuran-2-yl]methoxy-oxido-phosphoryl]oxy-(phosphonomethyl)phosphinate
   48    50     1     0     0
SMALL
USER_CHARGES

@<TRIPOS>ATOM
      1 PG         -5.8688   -4.7228    3.1195 P.3       1 ACP         1.6558
      2 O1G        -5.0688   -4.5233    4.3716 O.2       1 ACP        -0.9020
      3 O2G        -5.8306   -3.4962    2.0688 O.3       1 ACP        -0.8036
      4 O3G        -7.4476   -4.9843    3.3403 O.3       1 ACP        -0.8036
      5 PB         -3.6534   -6.3047    1.4108 P.3       1 ACP         1.4945
      6 O1B        -3.4324   -5.1208    0.4980 O.co2     1 ACP        -0.8481
      7 O2B        -3.5020   -7.7307    0.9343 O.co2     1 ACP        -0.8481
      8 C3B        -5.3525   -6.1387    2.1225 C.3       1 ACP        -0.6636
      9 PA         -1.2319   -6.3265    3.1261 P.3       1 ACP         1.6023
     10 O1A        -0.8660   -7.7443    2.7434 O.co2     1 ACP        -0.8673
     11 O2A        -0.9557   -5.8090    4.5210 O.co2     1 ACP        -0.8673
     12 O3A        -2.8134   -6.0919    2.7923 O.3       1 ACP        -0.8150
     13 O5'        -0.5696   -5.2856    2.0523 O.3       1 ACP        -0.5522
     14 C5'        -0.7840   -3.8935    2.2172 C.3       1 ACP         0.2181
     15 C4'        -0.0724   -3.1466    1.1027 C.3       1 ACP         0.0915
     16 O4'        -0.8674   -3.1929   -0.0945 O.3       1 ACP        -0.3675
     17 C3'         0.1338   -1.6715    1.4027 C.3       1 ACP         0.0748
     18 O3'         1.2893   -1.4445    2.1808 O.3       1 ACP        -0.5646
     19 C2'         0.2158   -1.0724    0.0128 C.3       1 ACP         0.0804
     20 O2'         1.5141   -1.2448   -0.5513 O.3       1 ACP        -0.5882
     21 C1'        -0.7897   -1.9176   -0.7583 C.3       1 ACP         0.3809
     22 N9         -2.1040   -1.3333   -0.7704 N.pl3     1 ACP        -0.4412
     23 C8         -3.2124   -1.5345    0.2719 C.ar      1 ACP         0.1936
     24 N7         -4.2964   -0.8234   -0.0828 N.2       1 ACP        -0.2746
     25 C5         -3.8754   -0.2386   -1.2478 C.ar      1 ACP        -0.1386
     26 C6         -4.7432    0.6719   -2.0470 C.ar      1 ACP         0.4778
     27 N6         -5.9725    0.9415   -1.6366 N.pl3     1 ACP        -0.8290
     28 N1         -4.1703    1.1517   -3.1536 N.pl3     1 ACP        -0.6985
     29 C2         -2.8174    0.7994   -3.5215 C.ar      1 ACP         0.6179
     30 N3         -2.0475    0.0097   -2.8393 N.ar      1 ACP        -0.5105
     31 C4         -2.6278   -0.4836   -1.7071 C.ar      1 ACP         0.2753
     32 HOG2       -6.1541   -2.6155    2.3547 H         1 ACP         0.4487
     33 HOG3       -7.9838   -4.2996    3.7939 H         1 ACP         0.4487
     34 H3B1       -5.5092   -7.0415    2.7235 H         1 ACP         0.1088
     35 H3B2       -6.0404   -6.1983    1.2713 H         1 ACP         0.1088
     36 H5'1       -1.8599   -3.6947    2.1849 H         1 ACP         0.0327
     37 H5'2       -0.3934   -3.5882    3.1930 H         1 ACP         0.0327
     38 H4'         0.8883   -3.6447    0.8783 H         1 ACP         0.1275
     39 H3'        -0.7368   -1.2359    1.9871 H         1 ACP         0.0637
     40 HO3'        1.3407   -0.4871    2.3218 H         1 ACP         0.4127
     41 H2'        -0.0343   -0.0280    0.0196 H         1 ACP         0.0692
     42 HO2'        2.1443   -0.7955    0.0378 H         1 ACP         0.4431
     43 H1'        -0.5175   -2.1046   -1.7826 H         1 ACP         0.1199
     44 H8         -3.2310   -2.1319    1.1889 H         1 ACP         0.2941
     45 HN61       -6.3230    0.5316   -0.7829 H         1 ACP         0.4754
     46 HN62       -6.5628    1.5584   -2.1760 H         1 ACP         0.4754
     47 H2         -2.4822    1.2710   -4.4579 H         1 ACP         0.0886
     48 H48        -4.7200    1.7780   -3.7346 H         1 ACP         0.4707
@<TRIPOS>BOND
     1    1    2 2
     2    1    3 1
     3    1    4 1
     4    1    8 1
     5    3   32 1
     6    4   33 1
     7    5    6 2
     8    5    7 1
     9    5    8 1
    10    5   12 1
    11    8   34 1
    12    8   35 1
    13    9   10 2
    14    9   11 1
    15    9   12 1
    16    9   13 1
    17   13   14 1
    18   14   15 1
    19   14   36 1
    20   14   37 1
    21   15   16 1
    22   15   17 1
    23   15   38 1
    24   16   21 1
    25   17   18 1
    26   17   19 1
    27   17   39 1
    28   18   40 1
    29   19   20 1
    30   19   21 1
    31   19   41 1
    32   20   42 1
    33   21   22 1
    34   21   43 1
    35   22   23 ar
    36   22   31 ar
    37   23   24 ar
    38   23   44 1
    39   24   25 ar
    40   25   26 ar
    41   25   31 ar
    42   26   27 1
    43   26   28 ar
    44   27   45 1
    45   27   46 1
    46   28   29 ar
    47   28   48 1
    48   29   30 ar
    49   29   47 1
    50   30   31 ar
@<TRIPOS>SUBSTRUCTURE
     1 ACP         1 GROUP 0 A     ****
@<TRIPOS>MOLECULE
[[5-(6-amino-1,8-dihydropurine-6,8-diylium-7-id-9-yl)-3,4-dihydroxy-tetrahydrofuran-2-yl]methoxy-oxido-phosphoryl]oxy-(phosphonomethyl)phosphinate
   48    50     1     0     0
SMALL
USER_CHARGES

@<TRIPOS>ATOM
      1 PG         -0.6299    0.7821   -5.5964 P.3       1 ACP         1.6558
      2 O1G         0.1781    1.2689   -4.4312 O.2       1 ACP        -0.9020
      3 O2G        -0.5172    1.6729   -6.9395 O.3       1 ACP        -0.8036
      4 O3G        -2.2218    0.6800   -5.3412 O.3       1 ACP        -0.8036
      5 PB         -0.3143   -2.3748   -5.0823 P.3       1 ACP         1.4945
      6 O1B         0.1300   -3.5597   -5.9083 O.co2     1 ACP        -0.8481
      7 O2B        -1.6590   -2.3289   -4.3945 O.co2     1 ACP        -0.8481
      8 C3B        -0.1964   -0.8782   -6.1628 C.3       1 ACP        -0.6636
      9 PA          1.2667   -2.6319   -2.5842 P.3       1 ACP         1.6023
     10 O1A         1.7714   -4.0387   -2.8224 O.co2     1 ACP        -0.8673
     11 O2A         0.1413   -2.3719   -1.6065 O.co2     1 ACP        -0.8673
     12 O3A         0.8610   -1.9767   -4.0243 O.3       1 ACP        -0.8150
     13 O5'         2.5238   -1.6632   -2.1888 O.3       1 ACP        -0.5522
     14 C5'         2.2816   -0.2918   -1.9206 C.3       1 ACP         0.2181
     15 C4'         2.7248    0.0226   -0.4980 C.3       1 ACP         0.0915
     16 O4'         2.4697    1.4219   -0.2462 O.3       1 ACP        -0.3675
     17 C3'         1.9404   -0.7419    0.5596 C.3       1 ACP         0.0748
     18 O3'         2.7418   -0.8086    1.7389 O.3       1 ACP        -0.5646
     19 C2'         0.7477    0.1630    0.7858 C.3       1 ACP         0.0804
     20 O2'         0.1373   -0.0577    2.0407 O.3       1 ACP        -0.5882
     21 C1'         1.3733    1.5427    0.6747 C.3       1 ACP         0.3809
     22 N9          0.4520    2.5240    0.1767 N.pl3     1 ACP        -0.4412
     23 C8          0.1798    2.8712   -1.2933 C.ar      1 ACP         0.1936
     24 N7         -0.7494    3.8400   -1.3610 N.2       1 ACP        -0.2746
     25 C5         -1.0173    4.0603   -0.0358 C.ar      1 ACP        -0.1386
     26 C6         -2.0105    5.0717    0.4241 C.ar      1 ACP         0.4778
     27 N6         -2.6723    5.7982   -0.4628 N.pl3     1 ACP        -0.8290
     28 N1         -2.1445    5.1522    1.7502 N.pl3     1 ACP        -0.6985
     29 C2         -1.3755    4.3143    2.6426 C.ar      1 ACP         0.6179
     30 N3         -0.5075    3.4292    2.2616 N.ar      1 ACP        -0.5105
     31 C4         -0.3667    3.3425    0.9070 C.ar      1 ACP         0.2753
     32 HOG2       -0.7886    2.6150   -6.9089 H         1 ACP         0.4487
     33 HOG3       -2.7174    1.4913   -5.1000 H         1 ACP         0.4487
     34 H3B1       -0.8133   -1.1000   -7.0409 H         1 ACP         0.1088
     35 H3B2        0.8439   -0.8378   -6.5052 H         1 ACP         0.1088
     36 H5'1        2.8430    0.3138   -2.6391 H         1 ACP         0.0327
     37 H5'2        1.2126   -0.0907   -2.0421 H         1 ACP         0.0327
     38 H4'         3.8046   -0.1390   -0.4011 H         1 ACP         0.1275
     39 H3'         1.6787   -1.7627    0.2719 H         1 ACP         0.0637
     40 HO3'        2.2231   -1.2979    2.3952 H         1 ACP         0.4127
     41 H2'         0.0002   -0.0084   -0.0014 H         1 ACP         0.0692
     42 HO2'       -0.1554   -0.9852    2.0577 H         1 ACP         0.4431
     43 H1'         1.7718    1.9211    1.6015 H         1 ACP         0.1199
     44 H8          0.6089    2.4651   -2.2147 H         1 ACP         0.2941
     45 HN61       -2.5055    5.6680   -1.4503 H         1 ACP         0.4754
     46 HN62       -3.3462    6.4841   -0.1542 H         1 ACP         0.4754
     47 H2         -1.5932    4.4937    3.7066 H         1 ACP         0.0886
     48 H48        -2.8098    5.8270    2.1160 H         1 ACP         0.4707
@<TRIPOS>BOND
     1    1    2 2
     2    1    3 1
     3    1    4 1
     4    1    8 1
     5    3   32 1
     6    4   33 1
     7    5    6 2
     8    5    7 1
     9    5    8 1
    10    5   12 1
    11    8   34 1
    12    8   35 1
    13    9   10 2
    14    9   11 1
    15    9   12 1
    16    9   13 1
    17   13   14 1
    18   14   15 1
    19   14   36 1
    20   14   37 1
    21   15   16 1
    22   15   17 1
    23   15   38 1
    24   16   21 1
    25   17   18 1
    26   17   19 1
    27   17   39 1
    28   18   40 1
    29   19   20 1
    30   19   21 1
    31   19   41 1
    32   20   42 1
    33   21   22 1
    34   21   43 1
    35   22   23 ar
    36   22   31 ar
    37   23   24 ar
    38   23   44 1
    39   24   25 ar
    40   25   26 ar
    41   25   31 ar
    42   26   27 1
    43   26   28 ar
    44   27   45 1
    45   27   46 1
    46   28   29 ar
    47   28   48 1
    48   29   30 ar
    49   29   47 1
    50   30   31 ar
@<TRIPOS>SUBSTRUCTURE
     1 ACP         1 GROUP 0 A     ****
@<TRIPOS>MOLECULE
[[5-(6-amino-1,8-dihydropurine-6,8-diylium-7-id-9-yl)-3,4-dihydroxy-tetrahydrofuran-2-yl]methoxy-oxido-phosphoryl]oxy-(phosphonomethyl)phosphinate
   48    50     1     0     0
SMALL
USER_CHARGES

@<TRIPOS>ATOM
      1 PG          6.7485    1.6572    0.7424 P.3       1 ACP         1.6558
      2 O1G         6.8181    1.6505    2.2399 O.2       1 ACP        -0.9020
      3 O2G         7.8458    2.5825    0.0008 O.3       1 ACP        -0.8036
      4 O3G         5.3456    2.1565    0.1162 O.3       1 ACP        -0.8036
      5 PB          6.9488   -0.2290   -1.8522 P.3       1 ACP         1.4945
      6 O1B         7.1866   -1.7013   -2.0958 O.co2     1 ACP        -0.8481
      7 O2B         7.8087    0.8425   -2.4817 O.co2     1 ACP        -0.8481
      8 C3B         6.9874    0.0375   -0.0224 C.3       1 ACP        -0.6636
      9 PA          4.4356   -0.0486   -3.4198 P.3       1 ACP         1.6023
     10 O1A         4.2995   -1.5233   -3.7316 O.co2     1 ACP        -0.8673
     11 O2A         4.9254    0.9201   -4.4742 O.co2     1 ACP        -0.8673
     12 O3A         5.3731    0.1156   -2.0926 O.3       1 ACP        -0.8150
     13 O5'         3.0199    0.5139   -2.8245 O.3       1 ACP        -0.5522
     14 C5'         2.2816   -0.2918   -1.9206 C.3       1 ACP         0.2181
     15 C4'         2.7248    0.0226   -0.4980 C.3       1 ACP         0.0915
     16 O4'         2.4697    1.4219   -0.2462 O.3       1 ACP        -0.3675
     17 C3'         1.9404   -0.7419    0.5596 C.3       1 ACP         0.0748
     18 O3'         2.7418   -0.8086    1.7389 O.3       1 ACP        -0.5646
     19 C2'         0.7477    0.1630    0.7858 C.3       1 ACP         0.0804
     20 O2'         0.1373   -0.0577    2.0407 O.3       1 ACP        -0.5882
     21 C1'         1.3733    1.5427    0.6747 C.3       1 ACP         0.3809
     22 N9          0.4520    2.5240    0.1767 N.pl3     1 ACP        -0.4412
     23 C8          0.1798    2.8712   -1.2933 C.ar      1 ACP         0.1936
     24 N7         -0.7494    3.8400   -1.3610 N.2       1 ACP        -0.2746
     25 C5         -1.0173    4.0603   -0.0358 C.ar      1 ACP        -0.1386
     26 C6         -2.0105    5.0717    0.4241 C.ar      1 ACP         0.4778
     27 N6         -2.6723    5.7982   -0.4628 N.pl3     1 ACP        -0.8290
     28 N1         -2.1445    5.1522    1.7502 N.pl3     1 ACP        -0.6985
     29 C2         -1.3755    4.3143    2.6426 C.ar      1 ACP         0.6179
     30 N3         -0.5075    3.4292    2.2616 N.ar      1 ACP        -0.5105
     31 C4         -0.3667    3.3425    0.9070 C.ar      1 ACP         0.2753
     32 HOG2        7.8600    3.5452    0.1881 H         1 ACP         0.4487
     33 HOG3        5.0306    3.0630    0.3189 H         1 ACP         0.4487
     34 H3B1        7.9587   -0.3456    0.3103 H         1 ACP         0.1088
     35 H3B2        6.2223   -0.6283    0.3930 H         1 ACP         0.1088
     36 H5'1        1.2154   -0.0780   -2.0455 H         1 ACP         0.0327
     37 H5'2        2.4646   -1.3453   -2.1548 H         1 ACP         0.0327
     38 H4'         3.8046   -0.1390   -0.4011 H         1 ACP         0.1275
     39 H3'         1.6787   -1.7627    0.2719 H         1 ACP         0.0637
     40 HO3'        2.2231   -1.2979    2.3952 H         1 ACP         0.4127
     41 H2'         0.0002   -0.0084   -0.0014 H         1 ACP         0.0692
     42 HO2'       -0.6132    0.5577    2.1063 H         1 ACP         0.4431
     43 H1'         1.7718    1.9211    1.6015 H         1 ACP         0.1199
     44 H8          0.6089    2.4651   -2.2147 H         1 ACP         0.2941
     45 HN61       -2.5055    5.6680   -1.4503 H         1 ACP         0.4754
     46 HN62       -3.3462    6.4841   -0.1542 H         1 ACP         0.4754
     47 H2         -1.5932    4.4937    3.7066 H         1 ACP         0.0886
     48 H48        -2.8098    5.8270    2.1160 H         1 ACP         0.4707
@<TRIPOS>BOND
     1    1    2 2
     2    1    3 1
     3    1    4 1
     4    1    8 1
     5    3   32 1
     6    4   33 1
     7    5    6 2
     8    5    7 1
     9    5    8 1
    10    5   12 1
    11    8   34 1
    12    8   35 1
    13    9   10 2
    14    9   11 1
    15    9   12 1
    16    9   13 1
    17   13   14 1
    18   14   15 1
    19   14   36 1
    20   14   37 1
    21   15   16 1
    22   15   17 1
    23   15   38 1
    24   16   21 1
    25   17   18 1
    26   17   19 1
    27   17   39 1
    28   18   40 1
    29   19   20 1
    30   19   21 1
    31   19   41 1
    32   20   42 1
    33   21   22 1
    34   21   43 1
    35   22   23 ar
    36   22   31 ar
    37   23   24 ar
    38   23   44 1
    39   24   25 ar
    40   25   26 ar
    41   25   31 ar
    42   26   27 1
    43   26   28 ar
    44   27   45 1
    45   27   46 1
    46   28   29 ar
    47   28   48 1
    48   29   30 ar
    49   29   47 1
    50   30   31 ar
@<TRIPOS>SUBSTRUCTURE
     1 ACP         1 GROUP 0 A     ****
@<TRIPOS>MOLECULE
[[5-(6-amino-1,8-dihydropurine-6,8-diylium-7-id-9-yl)-3,4-dihydroxy-tetrahydrofuran-2-yl]methoxy-oxido-phosphoryl]oxy-(phosphonomethyl)phosphinate
   48    50     1     0     0
SMALL
USER_CHARGES

@<TRIPOS>ATOM
      1 PG          2.5605    0.3800   -6.8054 P.3       1 ACP         1.6558
      2 O1G         1.6644    0.4325   -5.6047 O.2       1 ACP        -0.9020
      3 O2G         3.6575    1.5619   -6.9048 O.3       1 ACP        -0.8036
      4 O3G         1.8087    0.4389   -8.2340 O.3       1 ACP        -0.8036
      5 PB          4.7771   -1.6298   -5.6319 P.3       1 ACP         1.4945
      6 O1B         5.8017   -0.5243   -5.5234 O.co2     1 ACP        -0.8481
      7 O2B         5.1631   -3.0633   -5.9141 O.co2     1 ACP        -0.8481
      8 C3B         3.5577   -1.1221   -6.9265 C.3       1 ACP        -0.6636
      9 PA          3.9659   -2.1095   -2.8180 P.3       1 ACP         1.6023
     10 O1A         5.0701   -1.3086   -2.1624 O.co2     1 ACP        -0.8673
     11 O2A         4.0235   -3.6214   -2.8472 O.co2     1 ACP        -0.8673
     12 O3A         3.7737   -1.5707   -4.3478 O.3       1 ACP        -0.8150
     13 O5'         2.5238   -1.6632   -2.1888 O.3       1 ACP        -0.5522
     14 C5'         2.2816   -0.2918   -1.9206 C.3       1 ACP         0.2181
     15 C4'         2.7248    0.0226   -0.4980 C.3       1 ACP         0.0915
     16 O4'         2.4697    1.4219   -0.2462 O.3       1 ACP        -0.3675
     17 C3'         1.9404   -0.7419    0.5596 C.3       1 ACP         0.0748
     18 O3'         2.7418   -0.8086    1.7389 O.3       1 ACP        -0.5646
     19 C2'         0.7477    0.1630    0.7858 C.3       1 ACP         0.0804
     20 O2'         0.1373   -0.0577    2.0407 O.3       1 ACP        -0.5882
     21 C1'         1.3733    1.5427    0.6747 C.3       1 ACP         0.3809
     22 N9          0.4520    2.5240    0.1767 N.pl3     1 ACP        -0.4412
     23 C8          0.1798    2.8712   -1.2933 C.ar      1 ACP         0.1936
     24 N7         -0.7494    3.8400   -1.3610 N.2       1 ACP        -0.2746
     25 C5         -1.0173    4.0603   -0.0358 C.ar      1 ACP        -0.1386
     26 C6         -2.0105    5.0717    0.4241 C.ar      1 ACP         0.4778
     27 N6         -2.6723    5.7982   -0.4628 N.pl3     1 ACP        -0.8290
     28 N1         -2.1445    5.1522    1.7502 N.pl3     1 ACP        -0.6985
     29 C2         -1.3755    4.3143    2.6426 C.ar      1 ACP         0.6179
     30 N3         -0.5075    3.4292    2.2616 N.ar      1 ACP        -0.5105
     31 C4         -0.3667    3.3425    0.9070 C.ar      1 ACP         0.2753
     32 HOG2        3.3507    2.4927   -6.9454 H         1 ACP         0.4487
     33 HOG3        1.2584    1.2217   -8.4495 H         1 ACP         0.4487
     34 H3B1        2.8696   -1.9687   -7.0307 H         1 ACP         0.1088
     35 H3B2        4.1250   -1.0547   -7.8618 H         1 ACP         0.1088
     36 H5'1        2.8430    0.3138   -2.6391 H         1 ACP         0.0327
     37 H5'2        1.2126   -0.0907   -2.0421 H         1 ACP         0.0327
     38 H4'         3.8046   -0.1390   -0.4011 H         1 ACP         0.1275
     39 H3'         1.6787   -1.7627    0.2719 H         1 ACP         0.0637
     40 HO3'        2.2231   -1.2979    2.3952 H         1 ACP         0.4127
     41 H2'         0.0002   -0.0084   -0.0014 H         1 ACP         0.0692
     42 HO2'       -0.6132    0.5577    2.1063 H         1 ACP         0.4431
     43 H1'         1.7718    1.9211    1.6015 H         1 ACP         0.1199
     44 H8          0.6089    2.4651   -2.2147 H         1 ACP         0.2941
     45 HN61       -2.5055    5.6680   -1.4503 H         1 ACP         0.4754
     46 HN62       -3.3462    6.4841   -0.1542 H         1 ACP         0.4754
     47 H2         -1.5932    4.4937    3.7066 H         1 ACP         0.0886
     48 H48        -2.8098    5.8270    2.1160 H         1 ACP         0.4707
@<TRIPOS>BOND
     1    1    2 2
     2    1    3 1
     3    1    4 1
     4    1    8 1
     5    3   32 1
     6    4   33 1
     7    5    6 2
     8    5    7 1
     9    5    8 1
    10    5   12 1
    11    8   34 1
    12    8   35 1
    13    9   10 2
    14    9   11 1
    15    9   12 1
    16    9   13 1
    17   13   14 1
    18   14   15 1
    19   14   36 1
    20   14   37 1
    21   15   16 1
    22   15   17 1
    23   15   38 1
    24   16   21 1
    25   17   18 1
    26   17   19 1
    27   17   39 1
    28   18   40 1
    29   19   20 1
    30   19   21 1
    31   19   41 1
    32   20   42 1
    33   21   22 1
    34   21   43 1
    35   22   23 ar
    36   22   31 ar
    37   23   24 ar
    38   23   44 1
    39   24   25 ar
    40   25   26 ar
    41   25   31 ar
    42   26   27 1
    43   26   28 ar
    44   27   45 1
    45   27   46 1
    46   28   29 ar
    47   28   48 1
    48   29   30 ar
    49   29   47 1
    50   30   31 ar
@<TRIPOS>SUBSTRUCTURE
     1 ACP         1 GROUP 0 A     ****
@<TRIPOS>MOLECULE
[[5-(6-amino-1,8-dihydropurine-6,8-diylium-7-id-9-yl)-3,4-dihydroxy-tetrahydrofuran-2-yl]methoxy-oxido-phosphoryl]oxy-(phosphonomethyl)phosphinate
   48    50     1     0     0
SMALL
USER_CHARGES

@<TRIPOS>ATOM
      1 PG         -0.1148    2.5758   -7.0989 P.3       1 ACP         1.6558
      2 O1G        -1.5007    2.8347   -7.6085 O.2       1 ACP        -0.9020
      3 O2G         1.0396    3.5229   -7.7157 O.3       1 ACP        -0.8036
      4 O3G         0.4470    1.0817   -7.3477 O.3       1 ACP        -0.8036
      5 PB          1.6835    2.5394   -4.4353 P.3       1 ACP         1.4945
      6 O1B         1.4407    2.8174   -2.9699 O.co2     1 ACP        -0.8481
      7 O2B         2.7510    3.2583   -5.2272 O.co2     1 ACP        -0.8481
      8 C3B         0.0772    2.7962   -5.3157 C.3       1 ACP        -0.6636
      9 PA          3.0640   -0.0874   -4.4291 P.3       1 ACP         1.6023
     10 O1A         4.2648    0.4427   -5.1825 O.co2     1 ACP        -0.8673
     11 O2A         2.5794   -1.5038   -4.6499 O.co2     1 ACP        -0.8673
     12 O3A         1.8101    0.9308   -4.6711 O.3       1 ACP        -0.8150
     13 O5'         3.2885    0.1337   -2.8242 O.3       1 ACP        -0.5522
     14 C5'         2.2816   -0.2918   -1.9206 C.3       1 ACP         0.2181
     15 C4'         2.7248    0.0226   -0.4980 C.3       1 ACP         0.0915
     16 O4'         2.4697    1.4219   -0.2462 O.3       1 ACP        -0.3675
     17 C3'         1.9404   -0.7419    0.5596 C.3       1 ACP         0.0748
     18 O3'         2.7418   -0.8086    1.7389 O.3       1 ACP        -0.5646
     19 C2'         0.7477    0.1630    0.7858 C.3       1 ACP         0.0804
     20 O2'         0.1373   -0.0577    2.0407 O.3       1 ACP        -0.5882
     21 C1'         1.3733    1.5427    0.6747 C.3       1 ACP         0.3809
     22 N9          0.4520    2.5240    0.1767 N.pl3     1 ACP        -0.4412
     23 C8         -0.7463    2.2774   -0.7501 C.ar      1 ACP         0.1936
     24 N7         -1.3714    3.4419   -0.9948 N.2       1 ACP        -0.2746
     25 C5         -0.6104    4.3223   -0.2723 C.ar      1 ACP        -0.1386
     26 C6         -0.9062    5.7820   -0.2194 C.ar      1 ACP         0.4778
     27 N6         -1.9385    6.2713   -0.8881 N.pl3     1 ACP        -0.8290
     28 N1         -0.0613    6.4906    0.5336 N.pl3     1 ACP        -0.6985
     29 C2          1.0416    5.8662    1.2291 C.ar      1 ACP         0.6179
     30 N3          1.3146    4.5989    1.1954 N.ar      1 ACP        -0.5105
     31 C4          0.4541    3.8697    0.4273 C.ar      1 ACP         0.2753
     32 HOG2        1.1954    3.5129   -8.6840 H         1 ACP         0.4487
     33 HOG3        0.5246    0.7503   -8.2676 H         1 ACP         0.4487
     34 H3B1       -0.2306    3.8196   -5.0736 H         1 ACP         0.1088
     35 H3B2       -0.6401    2.1238   -4.8313 H         1 ACP         0.1088
     36 H5'1        1.3501    0.2325   -2.1561 H         1 ACP         0.0327
     37 H5'2        2.1268   -1.3683   -2.0445 H         1 ACP         0.0327
     38 H4'         3.8046   -0.1390   -0.4011 H         1 ACP         0.1275
     39 H3'         1.6787   -1.7627    0.2719 H         1 ACP         0.0637
     40 HO3'        2.2231   -1.2979    2.3952 H         1 ACP         0.4127
     41 H2'         0.0002   -0.0084   -0.0014 H         1 ACP         0.0692
     42 HO2'       -0.1554   -0.9852    2.0577 H         1 ACP         0.4431
     43 H1'         1.7718    1.9211    1.6015 H         1 ACP         0.1199
     44 H8         -1.1244    1.3534   -1.1987 H         1 ACP         0.2941
     45 HN61       -2.5259    5.6573   -1.4336 H         1 ACP         0.4754
     46 HN62       -2.1416    7.2600   -0.8539 H         1 ACP         0.4754
     47 H2          1.6509    6.5764    1.8088 H         1 ACP         0.0886
     48 H48        -0.2190    7.4917    0.6033 H         1 ACP         0.4707
@<TRIPOS>BOND
     1    1    2 2
     2    1    3 1
     3    1    4 1
     4    1    8 1
     5    3   32 1
     6    4   33 1
     7    5    6 2
     8    5    7 1
     9    5    8 1
    10    5   12 1
    11    8   34 1
    12    8   35 1
    13    9   10 2
    14    9   11 1
    15    9   12 1
    16    9   13 1
    17   13   14 1
    18   14   15 1
    19   14   36 1
    20   14   37 1
    21   15   16 1
    22   15   17 1
    23   15   38 1
    24   16   21 1
    25   17   18 1
    26   17   19 1
    27   17   39 1
    28   18   40 1
    29   19   20 1
    30   19   21 1
    31   19   41 1
    32   20   42 1
    33   21   22 1
    34   21   43 1
    35   22   23 ar
    36   22   31 ar
    37   23   24 ar
    38   23   44 1
    39   24   25 ar
    40   25   26 ar
    41   25   31 ar
    42   26   27 1
    43   26   28 ar
    44   27   45 1
    45   27   46 1
    46   28   29 ar
    47   28   48 1
    48   29   30 ar
    49   29   47 1
    50   30   31 ar
@<TRIPOS>SUBSTRUCTURE
     1 ACP         1 GROUP 0 A     ****
@<TRIPOS>MOLECULE
[[5-(6-amino-1,8-dihydropurine-6,8-diylium-7-id-9-yl)-3,4-dihydroxy-tetrahydrofuran-2-yl]methoxy-oxido-phosphoryl]oxy-(phosphonomethyl)phosphinate
   48    50     1     0     0
SMALL
USER_CHARGES

@<TRIPOS>ATOM
      1 PG          1.7106   -2.0909   -7.8987 P.3       1 ACP         1.6558
      2 O1G         0.5596   -1.2148   -7.5049 O.2       1 ACP        -0.9020
      3 O2G         2.7527   -1.4383   -8.9466 O.3       1 ACP        -0.8036
      4 O3G         1.3081   -3.4952   -8.5884 O.3       1 ACP        -0.8036
      5 PB          3.6739   -1.3905   -5.4523 P.3       1 ACP         1.4945
      6 O1B         4.6006   -0.6030   -6.3494 O.co2     1 ACP        -0.8481
      7 O2B         4.1717   -2.1475   -4.2429 O.co2     1 ACP        -0.8481
      8 C3B         2.7679   -2.5961   -6.5230 C.3       1 ACP        -0.6636
      9 PA          2.3308    0.9611   -4.2388 P.3       1 ACP         1.6023
     10 O1A         0.8771    1.3091   -4.0021 O.co2     1 ACP        -0.8673
     11 O2A         3.2554    1.9407   -4.9284 O.co2     1 ACP        -0.8673
     12 O3A         2.3991   -0.4624   -5.0367 O.3       1 ACP        -0.8150
     13 O5'         3.0199    0.5139   -2.8245 O.3       1 ACP        -0.5522
     14 C5'         2.2816   -0.2918   -1.9206 C.3       1 ACP         0.2181
     15 C4'         2.7248    0.0226   -0.4980 C.3       1 ACP         0.0915
     16 O4'         2.4697    1.4219   -0.2462 O.3       1 ACP        -0.3675
     17 C3'         1.9404   -0.7419    0.5596 C.3       1 ACP         0.0748
     18 O3'         2.7418   -0.8086    1.7389 O.3       1 ACP        -0.5646
     19 C2'         0.7477    0.1630    0.7858 C.3       1 ACP         0.0804
     20 O2'         0.1373   -0.0577    2.0407 O.3       1 ACP        -0.5882
     21 C1'         1.3733    1.5427    0.6747 C.3       1 ACP         0.3809
     22 N9          0.4520    2.5240    0.1767 N.pl3     1 ACP        -0.4412
     23 C8          0.5793    3.3338   -1.1209 C.ar      1 ACP         0.1936
     24 N7         -0.4807    4.1508   -1.2458 N.2       1 ACP        -0.2746
     25 C5         -1.1921    3.8572   -0.1126 C.ar      1 ACP        -0.1386
     26 C6         -2.4855    4.5203    0.2163 C.ar      1 ACP         0.4778
     27 N6         -2.9873    5.4319   -0.6020 N.pl3     1 ACP        -0.8290
     28 N1         -3.0414    4.1119    1.3596 N.pl3     1 ACP        -0.6985
     29 C2         -2.4169    3.1071    2.1904 C.ar      1 ACP         0.6179
     30 N3         -1.2928    2.5191    1.9210 N.ar      1 ACP        -0.5105
     31 C4         -0.7202    2.9326    0.7534 C.ar      1 ACP         0.2753
     32 HOG2        2.4268   -1.1567   -9.8278 H         1 ACP         0.4487
     33 HOG3        0.7917   -3.4842   -9.4223 H         1 ACP         0.4487
     34 H3B1        2.1570   -3.1959   -5.8389 H         1 ACP         0.1088
     35 H3B2        3.5331   -3.2632   -6.9361 H         1 ACP         0.1088
     36 H5'1        1.2154   -0.0780   -2.0455 H         1 ACP         0.0327
     37 H5'2        2.4646   -1.3453   -2.1548 H         1 ACP         0.0327
     38 H4'         3.8046   -0.1390   -0.4011 H         1 ACP         0.1275
     39 H3'         1.6787   -1.7627    0.2719 H         1 ACP         0.0637
     40 HO3'        2.2231   -1.2979    2.3952 H         1 ACP         0.4127
     41 H2'         0.0002   -0.0084   -0.0014 H         1 ACP         0.0692
     42 HO2'       -0.1554   -0.9852    2.0577 H         1 ACP         0.4431
     43 H1'         1.7718    1.9211    1.6015 H         1 ACP         0.1199
     44 H8          1.3565    3.3309   -1.8916 H         1 ACP         0.2941
     45 HN61       -2.4952    5.6785   -1.4487 H         1 ACP         0.4754
     46 HN62       -3.8637    5.8828   -0.3819 H         1 ACP         0.4754
     47 H2         -2.9911    2.8734    3.1000 H         1 ACP         0.0886
     48 H48        -3.9253    4.5332    1.6302 H         1 ACP         0.4707
@<TRIPOS>BOND
     1    1    2 2
     2    1    3 1
     3    1    4 1
     4    1    8 1
     5    3   32 1
     6    4   33 1
     7    5    6 2
     8    5    7 1
     9    5    8 1
    10    5   12 1
    11    8   34 1
    12    8   35 1
    13    9   10 2
    14    9   11 1
    15    9   12 1
    16    9   13 1
    17   13   14 1
    18   14   15 1
    19   14   36 1
    20   14   37 1
    21   15   16 1
    22   15   17 1
    23   15   38 1
    24   16   21 1
    25   17   18 1
    26   17   19 1
    27   17   39 1
    28   18   40 1
    29   19   20 1
    30   19   21 1
    31   19   41 1
    32   20   42 1
    33   21   22 1
    34   21   43 1
    35   22   23 ar
    36   22   31 ar
    37   23   24 ar
    38   23   44 1
    39   24   25 ar
    40   25   26 ar
    41   25   31 ar
    42   26   27 1
    43   26   28 ar
    44   27   45 1
    45   27   46 1
    46   28   29 ar
    47   28   48 1
    48   29   30 ar
    49   29   47 1
    50   30   31 ar
@<TRIPOS>SUBSTRUCTURE
     1 ACP         1 GROUP 0 A     ****
@<TRIPOS>MOLECULE
[[5-(6-amino-1,8-dihydropurine-6,8-diylium-7-id-9-yl)-3,4-dihydroxy-tetrahydrofuran-2-yl]methoxy-oxido-phosphoryl]oxy-(phosphonomethyl)phosphinate
   48    50     1     0     0
SMALL
USER_CHARGES

@<TRIPOS>ATOM
      1 PG         -1.2179   -4.2630    0.4147 P.3       1 ACP         1.6558
      2 O1G         0.2208   -3.9757    0.7227 O.2       1 ACP        -0.9020
      3 O2G        -2.2506   -4.0184    1.6328 O.3       1 ACP        -0.8036
      4 O3G        -1.5372   -5.7751   -0.0557 O.3       1 ACP        -0.8036
      5 PB         -1.2348   -3.2756   -2.6439 P.3       1 ACP         1.4945
      6 O1B        -2.0715   -2.3180   -3.4602 O.co2     1 ACP        -0.8481
      7 O2B        -1.0438   -4.7210   -3.0411 O.co2     1 ACP        -0.8481
      8 C3B        -1.9087   -3.2616   -0.9215 C.3       1 ACP        -0.6636
      9 PA          1.5529   -2.4527   -3.2419 P.3       1 ACP         1.6023
     10 O1A         1.2368   -1.5456   -4.4115 O.co2     1 ACP        -0.8673
     11 O2A         2.1257   -3.8345   -3.4711 O.co2     1 ACP        -0.8673
     12 O3A         0.2119   -2.5960   -2.3207 O.3       1 ACP        -0.8150
     13 O5'         2.5238   -1.6632   -2.1888 O.3       1 ACP        -0.5522
     14 C5'         2.2816   -0.2918   -1.9206 C.3       1 ACP         0.2181
     15 C4'         2.7248    0.0226   -0.4980 C.3       1 ACP         0.0915
     16 O4'         2.4697    1.4219   -0.2462 O.3       1 ACP        -0.3675
     17 C3'         1.9404   -0.7419    0.5596 C.3       1 ACP         0.0748
     18 O3'         2.7418   -0.8086    1.7389 O.3       1 ACP        -0.5646
     19 C2'         0.7477    0.1630    0.7858 C.3       1 ACP         0.0804
     20 O2'         0.1373   -0.0577    2.0407 O.3       1 ACP        -0.5882
     21 C1'         1.3733    1.5427    0.6747 C.3       1 ACP         0.3809
     22 N9          0.4520    2.5240    0.1767 N.pl3     1 ACP        -0.4412
     23 C8         -1.0660    2.5608    0.3999 C.ar      1 ACP         0.1936
     24 N7         -1.5852    3.6333   -0.2221 N.2       1 ACP        -0.2746
     25 C5         -0.4682    4.1996   -0.7771 C.ar      1 ACP        -0.1386
     26 C6         -0.5216    5.4476   -1.5899 C.ar      1 ACP         0.4778
     27 N6         -1.6813    6.0510   -1.7982 N.pl3     1 ACP        -0.8290
     28 N1          0.6621    5.8575   -2.0523 N.pl3     1 ACP        -0.6985
     29 C2          1.8795    5.1301   -1.7717 C.ar      1 ACP         0.6179
     30 N3          1.9458    4.0434   -1.0670 N.ar      1 ACP        -0.5105
     31 C4          0.7388    3.6199   -0.5917 C.ar      1 ACP         0.2753
     32 HOG2       -2.1354   -4.5281    2.4629 H         1 ACP         0.4487
     33 HOG3       -1.3279   -6.5160    0.5519 H         1 ACP         0.4487
     34 H3B1       -2.9683   -3.5240   -1.0181 H         1 ACP         0.1088
     35 H3B2       -1.8671   -2.2170   -0.5926 H         1 ACP         0.1088
     36 H5'1        2.8430    0.3138   -2.6391 H         1 ACP         0.0327
     37 H5'2        1.2126   -0.0907   -2.0421 H         1 ACP         0.0327
     38 H4'         3.8046   -0.1390   -0.4011 H         1 ACP         0.1275
     39 H3'         1.6787   -1.7627    0.2719 H         1 ACP         0.0637
     40 HO3'        2.2231   -1.2979    2.3952 H         1 ACP         0.4127
     41 H2'         0.0002   -0.0084   -0.0014 H         1 ACP         0.0692
     42 HO2'       -0.1554   -0.9852    2.0577 H         1 ACP         0.4431
     43 H1'         1.7718    1.9211    1.6015 H         1 ACP         0.1199
     44 H8         -1.7235    1.8833    0.9537 H         1 ACP         0.2941
     45 HN61       -2.5296    5.6672   -1.4072 H         1 ACP         0.4754
     46 HN62       -1.7205    6.8969   -2.3483 H         1 ACP         0.4754
     47 H2          2.7750    5.5878   -2.2190 H         1 ACP         0.0886
     48 H48         0.6808    6.7046   -2.6128 H         1 ACP         0.4707
@<TRIPOS>BOND
     1    1    2 2
     2    1    3 1
     3    1    4 1
     4    1    8 1
     5    3   32 1
     6    4   33 1
     7    5    6 2
     8    5    7 1
     9    5    8 1
    10    5   12 1
    11    8   34 1
    12    8   35 1
    13    9   10 2
    14    9   11 1
    15    9   12 1
    16    9   13 1
    17   13   14 1
    18   14   15 1
    19   14   36 1
    20   14   37 1
    21   15   16 1
    22   15   17 1
    23   15   38 1
    24   16   21 1
    25   17   18 1
    26   17   19 1
    27   17   39 1
    28   18   40 1
    29   19   20 1
    30   19   21 1
    31   19   41 1
    32   20   42 1
    33   21   22 1
    34   21   43 1
    35   22   23 ar
    36   22   31 ar
    37   23   24 ar
    38   23   44 1
    39   24   25 ar
    40   25   26 ar
    41   25   31 ar
    42   26   27 1
    43   26   28 ar
    44   27   45 1
    45   27   46 1
    46   28   29 ar
    47   28   48 1
    48   29   30 ar
    49   29   47 1
    50   30   31 ar
@<TRIPOS>SUBSTRUCTURE
     1 ACP         1 GROUP 0 A     ****
@<TRIPOS>MOLECULE
[[5-(6-amino-1,8-dihydropurine-6,8-diylium-7-id-9-yl)-3,4-dihydroxy-tetrahydrofuran-2-yl]methoxy-oxido-phosphoryl]oxy-(phosphonomethyl)phosphinate
   48    50     1     0     0
SMALL
USER_CHARGES

@<TRIPOS>ATOM
      1 PG          1.9074   -2.2341   -6.8732 P.3       1 ACP         1.6558
      2 O1G         1.2085   -1.2203   -6.0182 O.2       1 ACP        -0.9020
      3 O2G         2.6807   -1.6406   -8.1616 O.3       1 ACP        -0.8036
      4 O3G         0.9611   -3.3859   -7.4959 O.3       1 ACP        -0.8036
      5 PB          4.6697   -2.3830   -5.2369 P.3       1 ACP         1.4945
      6 O1B         5.4211   -1.6617   -6.3317 O.co2     1 ACP        -0.8481
      7 O2B         5.3255   -3.4222   -4.3574 O.co2     1 ACP        -0.8481
      8 C3B         3.1909   -3.1744   -6.0164 C.3       1 ACP        -0.6636
      9 PA          4.4356   -0.0486   -3.4198 P.3       1 ACP         1.6023
     10 O1A         5.0324    0.9810   -4.3549 O.co2     1 ACP        -0.8673
     11 O2A         5.2456   -0.6069   -2.2700 O.co2     1 ACP        -0.8673
     12 O3A         3.8781   -1.2974   -4.3128 O.3       1 ACP        -0.8150
     13 O5'         3.0199    0.5139   -2.8245 O.3       1 ACP        -0.5522
     14 C5'         2.2816   -0.2918   -1.9206 C.3       1 ACP         0.2181
     15 C4'         2.7248    0.0226   -0.4980 C.3       1 ACP         0.0915
     16 O4'         2.4697    1.4219   -0.2462 O.3       1 ACP        -0.3675
     17 C3'         1.9404   -0.7419    0.5596 C.3       1 ACP         0.0748
     18 O3'         2.7418   -0.8086    1.7389 O.3       1 ACP        -0.5646
     19 C2'         0.7477    0.1630    0.7858 C.3       1 ACP         0.0804
     20 O2'         0.1373   -0.0577    2.0407 O.3       1 ACP        -0.5882
     21 C1'         1.3733    1.5427    0.6747 C.3       1 ACP         0.3809
     22 N9          0.4520    2.5240    0.1767 N.pl3     1 ACP        -0.4412
     23 C8          0.1798    2.8712   -1.2933 C.ar      1 ACP         0.1936
     24 N7         -0.7494    3.8400   -1.3610 N.2       1 ACP        -0.2746
     25 C5         -1.0173    4.0603   -0.0358 C.ar      1 ACP        -0.1386
     26 C6         -2.0105    5.0717    0.4241 C.ar      1 ACP         0.4778
     27 N6         -2.6723    5.7982   -0.4628 N.pl3     1 ACP        -0.8290
     28 N1         -2.1445    5.1522    1.7502 N.pl3     1 ACP        -0.6985
     29 C2         -1.3755    4.3143    2.6426 C.ar      1 ACP         0.6179
     30 N3         -0.5075    3.4292    2.2616 N.ar      1 ACP        -0.5105
     31 C4         -0.3667    3.3425    0.9070 C.ar      1 ACP         0.2753
     32 HOG2        2.1681   -1.1512   -8.8395 H         1 ACP         0.4487
     33 HOG3        0.2220   -3.1261   -8.0860 H         1 ACP         0.4487
     34 H3B1        2.7054   -3.7435   -5.2156 H         1 ACP         0.1088
     35 H3B2        3.5850   -3.9040   -6.7330 H         1 ACP         0.1088
     36 H5'1        1.2154   -0.0780   -2.0455 H         1 ACP         0.0327
     37 H5'2        2.4646   -1.3453   -2.1548 H         1 ACP         0.0327
     38 H4'         3.8046   -0.1390   -0.4011 H         1 ACP         0.1275
     39 H3'         1.6787   -1.7627    0.2719 H         1 ACP         0.0637
     40 HO3'        2.2231   -1.2979    2.3952 H         1 ACP         0.4127
     41 H2'         0.0002   -0.0084   -0.0014 H         1 ACP         0.0692
     42 HO2'       -0.6132    0.5577    2.1063 H         1 ACP         0.4431
     43 H1'         1.7718    1.9211    1.6015 H         1 ACP         0.1199
     44 H8          0.6089    2.4651   -2.2147 H         1 ACP         0.2941
     45 HN61       -2.5055    5.6680   -1.4503 H         1 ACP         0.4754
     46 HN62       -3.3462    6.4841   -0.1542 H         1 ACP         0.4754
     47 H2         -1.5932    4.4937    3.7066 H         1 ACP         0.0886
     48 H48        -2.8098    5.8270    2.1160 H         1 ACP         0.4707
@<TRIPOS>BOND
     1    1    2 2
     2    1    3 1
     3    1    4 1
     4    1    8 1
     5    3   32 1
     6    4   33 1
     7    5    6 2
     8    5    7 1
     9    5    8 1
    10    5   12 1
    11    8   34 1
    12    8   35 1
    13    9   10 2
    14    9   11 1
    15    9   12 1
    16    9   13 1
    17   13   14 1
    18   14   15 1
    19   14   36 1
    20   14   37 1
    21   15   16 1
    22   15   17 1
    23   15   38 1
    24   16   21 1
    25   17   18 1
    26   17   19 1
    27   17   39 1
    28   18   40 1
    29   19   20 1
    30   19   21 1
    31   19   41 1
    32   20   42 1
    33   21   22 1
    34   21   43 1
    35   22   23 ar
    36   22   31 ar
    37   23   24 ar
    38   23   44 1
    39   24   25 ar
    40   25   26 ar
    41   25   31 ar
    42   26   27 1
    43   26   28 ar
    44   27   45 1
    45   27   46 1
    46   28   29 ar
    47   28   48 1
    48   29   30 ar
    49   29   47 1
    50   30   31 ar
@<TRIPOS>SUBSTRUCTURE
     1 ACP         1 GROUP 0 A     ****
@<TRIPOS>MOLECULE
[[5-(6-amino-1,8-dihydropurine-6,8-diylium-7-id-9-yl)-3,4-dihydroxy-tetrahydrofuran-2-yl]methoxy-oxido-phosphoryl]oxy-(phosphonomethyl)phosphinate
   48    50     1     0     0
SMALL
USER_CHARGES

@<TRIPOS>ATOM
      1 PG         -2.7711   -1.0766   -3.3652 P.3       1 ACP         1.6558
      2 O1G        -1.9165   -0.0880   -4.0998 O.2       1 ACP        -0.9020
      3 O2G        -4.2367   -1.3305   -3.9958 O.3       1 ACP        -0.8036
      4 O3G        -3.0798   -0.7133   -1.8217 O.3       1 ACP        -0.8036
      5 PB         -0.4463   -3.1009   -2.4554 P.3       1 ACP         1.4945
      6 O1B        -0.2085   -4.5884   -2.5740 O.co2     1 ACP        -0.8481
      7 O2B        -0.4371   -2.3855   -1.1243 O.co2     1 ACP        -0.8481
      8 C3B        -2.0697   -2.7389   -3.2645 C.3       1 ACP        -0.6636
      9 PA          2.1358   -2.2685   -3.6578 P.3       1 ACP         1.6023
     10 O1A         2.4970   -1.2612   -4.7281 O.co2     1 ACP        -0.8673
     11 O2A         2.6457   -3.6911   -3.7347 O.co2     1 ACP        -0.8673
     12 O3A         0.5094   -2.3101   -3.5139 O.3       1 ACP        -0.8150
     13 O5'         2.5238   -1.6632   -2.1888 O.3       1 ACP        -0.5522
     14 C5'         2.2816   -0.2918   -1.9206 C.3       1 ACP         0.2181
     15 C4'         2.7248    0.0226   -0.4980 C.3       1 ACP         0.0915
     16 O4'         2.4697    1.4219   -0.2462 O.3       1 ACP        -0.3675
     17 C3'         1.9404   -0.7419    0.5596 C.3       1 ACP         0.0748
     18 O3'         2.7418   -0.8086    1.7389 O.3       1 ACP        -0.5646
     19 C2'         0.7477    0.1630    0.7858 C.3       1 ACP         0.0804
     20 O2'         0.1373   -0.0577    2.0407 O.3       1 ACP        -0.5882
     21 C1'         1.3733    1.5427    0.6747 C.3       1 ACP         0.3809
     22 N9          0.4520    2.5240    0.1767 N.pl3     1 ACP        -0.4412
     23 C8         -0.7463    2.2774   -0.7501 C.ar      1 ACP         0.1936
     24 N7         -1.3714    3.4419   -0.9948 N.2       1 ACP        -0.2746
     25 C5         -0.6104    4.3223   -0.2723 C.ar      1 ACP        -0.1386
     26 C6         -0.9062    5.7820   -0.2194 C.ar      1 ACP         0.4778
     27 N6         -1.9385    6.2713   -0.8881 N.pl3     1 ACP        -0.8290
     28 N1         -0.0613    6.4906    0.5336 N.pl3     1 ACP        -0.6985
     29 C2          1.0416    5.8662    1.2291 C.ar      1 ACP         0.6179
     30 N3          1.3146    4.5989    1.1954 N.ar      1 ACP        -0.5105
     31 C4          0.4541    3.8697    0.4273 C.ar      1 ACP         0.2753
     32 HOG2       -4.8572   -0.5750   -4.0751 H         1 ACP         0.4487
     33 HOG3       -3.5477    0.1236   -1.6149 H         1 ACP         0.4487
     34 H3B1       -2.8010   -3.3764   -2.7550 H         1 ACP         0.1088
     35 H3B2       -1.9817   -3.1116   -4.2914 H         1 ACP         0.1088
     36 H5'1        2.8430    0.3138   -2.6391 H         1 ACP         0.0327
     37 H5'2        1.2126   -0.0907   -2.0421 H         1 ACP         0.0327
     38 H4'         3.8046   -0.1390   -0.4011 H         1 ACP         0.1275
     39 H3'         1.6787   -1.7627    0.2719 H         1 ACP         0.0637
     40 HO3'        2.2231   -1.2979    2.3952 H         1 ACP         0.4127
     41 H2'         0.0002   -0.0084   -0.0014 H         1 ACP         0.0692
     42 HO2'       -0.1554   -0.9852    2.0577 H         1 ACP         0.4431
     43 H1'         1.7718    1.9211    1.6015 H         1 ACP         0.1199
     44 H8         -1.1244    1.3534   -1.1987 H         1 ACP         0.2941
     45 HN61       -2.5259    5.6573   -1.4336 H         1 ACP         0.4754
     46 HN62       -2.1416    7.2600   -0.8539 H         1 ACP         0.4754
     47 H2          1.6509    6.5764    1.8088 H         1 ACP         0.0886
     48 H48        -0.2190    7.4917    0.6033 H         1 ACP         0.4707
@<TRIPOS>BOND
     1    1    2 2
     2    1    3 1
     3    1    4 1
     4    1    8 1
     5    3   32 1
     6    4   33 1
     7    5    6 2
     8    5    7 1
     9    5    8 1
    10    5   12 1
    11    8   34 1
    12    8   35 1
    13    9   10 2
    14    9   11 1
    15    9   12 1
    16    9   13 1
    17   13   14 1
    18   14   15 1
    19   14   36 1
    20   14   37 1
    21   15   16 1
    22   15   17 1
    23   15   38 1
    24   16   21 1
    25   17   18 1
    26   17   19 1
    27   17   39 1
    28   18   40 1
    29   19   20 1
    30   19   21 1
    31   19   41 1
    32   20   42 1
    33   21   22 1
    34   21   43 1
    35   22   23 ar
    36   22   31 ar
    37   23   24 ar
    38   23   44 1
    39   24   25 ar
    40   25   26 ar
    41   25   31 ar
    42   26   27 1
    43   26   28 ar
    44   27   45 1
    45   27   46 1
    46   28   29 ar
    47   28   48 1
    48   29   30 ar
    49   29   47 1
    50   30   31 ar
@<TRIPOS>SUBSTRUCTURE
     1 ACP         1 GROUP 0 A     ****
@<TRIPOS>MOLECULE
[[5-(6-amino-1,8-dihydropurine-6,8-diylium-7-id-9-yl)-3,4-dihydroxy-tetrahydrofuran-2-yl]methoxy-oxido-phosphoryl]oxy-(phosphonomethyl)phosphinate
   48    50     1     0     0
SMALL
USER_CHARGES

@<TRIPOS>ATOM
      1 PG          0.2556    0.0103   -6.6596 P.3       1 ACP         1.6558
      2 O1G        -0.5243    1.2264   -7.0597 O.2       1 ACP        -0.9020
      3 O2G         0.0505   -1.2865   -7.6011 O.3       1 ACP        -0.8036
      4 O3G        -0.0455   -0.5480   -5.1739 O.3       1 ACP        -0.8036
      5 PB          3.2367   -1.1005   -6.2024 P.3       1 ACP         1.4945
      6 O1B         4.6288   -0.5248   -6.3206 O.co2     1 ACP        -0.8481
      7 O2B         2.8133   -2.3476   -6.9434 O.co2     1 ACP        -0.8481
      8 C3B         2.0478    0.2414   -6.6572 C.3       1 ACP        -0.6636
      9 PA          3.5289   -2.0703   -3.4131 P.3       1 ACP         1.6023
     10 O1A         4.9012   -1.4879   -3.1519 O.co2     1 ACP        -0.8673
     11 O2A         3.3595   -3.5474   -3.6950 O.co2     1 ACP        -0.8673
     12 O3A         2.8324   -1.2297   -4.6278 O.3       1 ACP        -0.8150
     13 O5'         2.5238   -1.6632   -2.1888 O.3       1 ACP        -0.5522
     14 C5'         2.2816   -0.2918   -1.9206 C.3       1 ACP         0.2181
     15 C4'         2.7248    0.0226   -0.4980 C.3       1 ACP         0.0915
     16 O4'         2.4697    1.4219   -0.2462 O.3       1 ACP        -0.3675
     17 C3'         1.9404   -0.7419    0.5596 C.3       1 ACP         0.0748
     18 O3'         2.7418   -0.8086    1.7389 O.3       1 ACP        -0.5646
     19 C2'         0.7477    0.1630    0.7858 C.3       1 ACP         0.0804
     20 O2'         0.1373   -0.0577    2.0407 O.3       1 ACP        -0.5882
     21 C1'         1.3733    1.5427    0.6747 C.3       1 ACP         0.3809
     22 N9          0.4520    2.5240    0.1767 N.pl3     1 ACP        -0.4412
     23 C8          0.1798    2.8712   -1.2933 C.ar      1 ACP         0.1936
     24 N7         -0.7494    3.8400   -1.3610 N.2       1 ACP        -0.2746
     25 C5         -1.0173    4.0603   -0.0358 C.ar      1 ACP        -0.1386
     26 C6         -2.0105    5.0717    0.4241 C.ar      1 ACP         0.4778
     27 N6         -2.6723    5.7982   -0.4628 N.pl3     1 ACP        -0.8290
     28 N1         -2.1445    5.1522    1.7502 N.pl3     1 ACP        -0.6985
     29 C2         -1.3755    4.3143    2.6426 C.ar      1 ACP         0.6179
     30 N3         -0.5075    3.4292    2.2616 N.ar      1 ACP        -0.5105
     31 C4         -0.3667    3.3425    0.9070 C.ar      1 ACP         0.2753
     32 HOG2       -0.8483   -1.6678   -7.6953 H         1 ACP         0.4487
     33 HOG3       -0.9569   -0.8318   -4.9486 H         1 ACP         0.4487
     34 H3B1        2.3410    0.5661   -7.6619 H         1 ACP         0.1088
     35 H3B2        2.2620    1.0738   -5.9773 H         1 ACP         0.1088
     36 H5'1        2.8430    0.3138   -2.6391 H         1 ACP         0.0327
     37 H5'2        1.2126   -0.0907   -2.0421 H         1 ACP         0.0327
     38 H4'         3.8046   -0.1390   -0.4011 H         1 ACP         0.1275
     39 H3'         1.6787   -1.7627    0.2719 H         1 ACP         0.0637
     40 HO3'        3.5553   -1.2733    1.4913 H         1 ACP         0.4127
     41 H2'         0.0002   -0.0084   -0.0014 H         1 ACP         0.0692
     42 HO2'       -0.1554   -0.9852    2.0577 H         1 ACP         0.4431
     43 H1'         1.7718    1.9211    1.6015 H         1 ACP         0.1199
     44 H8          0.6089    2.4651   -2.2147 H         1 ACP         0.2941
     45 HN61       -2.5055    5.6680   -1.4503 H         1 ACP         0.4754
     46 HN62       -3.3462    6.4841   -0.1542 H         1 ACP         0.4754
     47 H2         -1.5932    4.4937    3.7066 H         1 ACP         0.0886
     48 H48        -2.8098    5.8270    2.1160 H         1 ACP         0.4707
@<TRIPOS>BOND
     1    1    2 2
     2    1    3 1
     3    1    4 1
     4    1    8 1
     5    3   32 1
     6    4   33 1
     7    5    6 2
     8    5    7 1
     9    5    8 1
    10    5   12 1
    11    8   34 1
    12    8   35 1
    13    9   10 2
    14    9   11 1
    15    9   12 1
    16    9   13 1
    17   13   14 1
    18   14   15 1
    19   14   36 1
    20   14   37 1
    21   15   16 1
    22   15   17 1
    23   15   38 1
    24   16   21 1
    25   17   18 1
    26   17   19 1
    27   17   39 1
    28   18   40 1
    29   19   20 1
    30   19   21 1
    31   19   41 1
    32   20   42 1
    33   21   22 1
    34   21   43 1
    35   22   23 ar
    36   22   31 ar
    37   23   24 ar
    38   23   44 1
    39   24   25 ar
    40   25   26 ar
    41   25   31 ar
    42   26   27 1
    43   26   28 ar
    44   27   45 1
    45   27   46 1
    46   28   29 ar
    47   28   48 1
    48   29   30 ar
    49   29   47 1
    50   30   31 ar
@<TRIPOS>SUBSTRUCTURE
     1 ACP         1 GROUP 0 A     ****
@<TRIPOS>MOLECULE
[[5-(6-amino-1,8-dihydropurine-6,8-diylium-7-id-9-yl)-3,4-dihydroxy-tetrahydrofuran-2-yl]methoxy-oxido-phosphoryl]oxy-(phosphonomethyl)phosphinate
   48    50     1     0     0
SMALL
USER_CHARGES

@<TRIPOS>ATOM
      1 PG          3.0092   -4.4808   -4.9671 P.3       1 ACP         1.6558
      2 O1G         3.9505   -4.4239   -3.8017 O.2       1 ACP        -0.9020
      3 O2G         1.4386   -4.5125   -4.5896 O.3       1 ACP        -0.8036
      4 O3G         3.1908   -5.7553   -5.9429 O.3       1 ACP        -0.8036
      5 PB          2.8391   -1.3282   -5.5693 P.3       1 ACP         1.4945
      6 O1B         1.4208   -1.2502   -5.0537 O.co2     1 ACP        -0.8481
      7 O2B         3.3465   -0.4318   -6.6750 O.co2     1 ACP        -0.8481
      8 C3B         3.1355   -3.0760   -6.0968 C.3       1 ACP        -0.6636
      9 PA          4.4356   -0.0486   -3.4198 P.3       1 ACP         1.6023
     10 O1A         5.0324    0.9810   -4.3549 O.co2     1 ACP        -0.8673
     11 O2A         5.2456   -0.6069   -2.2700 O.co2     1 ACP        -0.8673
     12 O3A         3.8781   -1.2974   -4.3128 O.3       1 ACP        -0.8150
     13 O5'         3.0199    0.5139   -2.8245 O.3       1 ACP        -0.5522
     14 C5'         2.2816   -0.2918   -1.9206 C.3       1 ACP         0.2181
     15 C4'         2.7248    0.0226   -0.4980 C.3       1 ACP         0.0915
     16 O4'         2.4697    1.4219   -0.2462 O.3       1 ACP        -0.3675
     17 C3'         1.9404   -0.7419    0.5596 C.3       1 ACP         0.0748
     18 O3'         2.7418   -0.8086    1.7389 O.3       1 ACP        -0.5646
     19 C2'         0.7477    0.1630    0.7858 C.3       1 ACP         0.0804
     20 O2'         0.1373   -0.0577    2.0407 O.3       1 ACP        -0.5882
     21 C1'         1.3733    1.5427    0.6747 C.3       1 ACP         0.3809
     22 N9          0.4520    2.5240    0.1767 N.pl3     1 ACP        -0.4412
     23 C8          0.1798    2.8712   -1.2933 C.ar      1 ACP         0.1936
     24 N7         -0.7494    3.8400   -1.3610 N.2       1 ACP        -0.2746
     25 C5         -1.0173    4.0603   -0.0358 C.ar      1 ACP        -0.1386
     26 C6         -2.0105    5.0717    0.4241 C.ar      1 ACP         0.4778
     27 N6         -2.6723    5.7982   -0.4628 N.pl3     1 ACP        -0.8290
     28 N1         -2.1445    5.1522    1.7502 N.pl3     1 ACP        -0.6985
     29 C2         -1.3755    4.3143    2.6426 C.ar      1 ACP         0.6179
     30 N3         -0.5075    3.4292    2.2616 N.ar      1 ACP        -0.5105
     31 C4         -0.3667    3.3425    0.9070 C.ar      1 ACP         0.2753
     32 HOG2        1.0966   -5.2505   -4.0414 H         1 ACP         0.4487
     33 HOG3        3.0797   -6.6568   -5.5727 H         1 ACP         0.4487
     34 H3B1        4.1434   -3.0867   -6.5268 H         1 ACP         0.1088
     35 H3B2        2.4355   -3.2630   -6.9191 H         1 ACP         0.1088
     36 H5'1        1.2154   -0.0780   -2.0455 H         1 ACP         0.0327
     37 H5'2        2.4646   -1.3453   -2.1548 H         1 ACP         0.0327
     38 H4'         3.8046   -0.1390   -0.4011 H         1 ACP         0.1275
     39 H3'         1.6787   -1.7627    0.2719 H         1 ACP         0.0637
     40 HO3'        2.2231   -1.2979    2.3952 H         1 ACP         0.4127
     41 H2'         0.0002   -0.0084   -0.0014 H         1 ACP         0.0692
     42 HO2'       -0.6132    0.5577    2.1063 H         1 ACP         0.4431
     43 H1'         1.7718    1.9211    1.6015 H         1 ACP         0.1199
     44 H8          0.6089    2.4651   -2.2147 H         1 ACP         0.2941
     45 HN61       -2.5055    5.6680   -1.4503 H         1 ACP         0.4754
     46 HN62       -3.3462    6.4841   -0.1542 H         1 ACP         0.4754
     47 H2         -1.5932    4.4937    3.7066 H         1 ACP         0.0886
     48 H48        -2.8098    5.8270    2.1160 H         1 ACP         0.4707
@<TRIPOS>BOND
     1    1    2 2
     2    1    3 1
     3    1    4 1
     4    1    8 1
     5    3   32 1
     6    4   33 1
     7    5    6 2
     8    5    7 1
     9    5    8 1
    10    5   12 1
    11    8   34 1
    12    8   35 1
    13    9   10 2
    14    9   11 1
    15    9   12 1
    16    9   13 1
    17   13   14 1
    18   14   15 1
    19   14   36 1
    20   14   37 1
    21   15   16 1
    22   15   17 1
    23   15   38 1
    24   16   21 1
    25   17   18 1
    26   17   19 1
    27   17   39 1
    28   18   40 1
    29   19   20 1
    30   19   21 1
    31   19   41 1
    32   20   42 1
    33   21   22 1
    34   21   43 1
    35   22   23 ar
    36   22   31 ar
    37   23   24 ar
    38   23   44 1
    39   24   25 ar
    40   25   26 ar
    41   25   31 ar
    42   26   27 1
    43   26   28 ar
    44   27   45 1
    45   27   46 1
    46   28   29 ar
    47   28   48 1
    48   29   30 ar
    49   29   47 1
    50   30   31 ar
@<TRIPOS>SUBSTRUCTURE
     1 ACP         1 GROUP 0 A     ****
@<TRIPOS>MOLECULE
[[5-(6-amino-1,8-dihydropurine-6,8-diylium-7-id-9-yl)-3,4-dihydroxy-tetrahydrofuran-2-yl]methoxy-oxido-phosphoryl]oxy-(phosphonomethyl)phosphinate
   48    50     1     0     0
SMALL
USER_CHARGES

@<TRIPOS>ATOM
      1 PG         -2.7711   -1.0766   -3.3652 P.3       1 ACP         1.6558
      2 O1G        -4.0961   -1.0055   -4.0627 O.2       1 ACP        -0.9020
      3 O2G        -2.7686   -0.5797   -1.8279 O.3       1 ACP        -0.8036
      4 O3G        -1.5838   -0.2166   -4.0438 O.3       1 ACP        -0.8036
      5 PB         -0.4463   -3.1009   -2.4554 P.3       1 ACP         1.4945
      6 O1B        -0.2085   -4.5884   -2.5740 O.co2     1 ACP        -0.8481
      7 O2B        -0.4371   -2.3855   -1.1243 O.co2     1 ACP        -0.8481
      8 C3B        -2.0697   -2.7389   -3.2645 C.3       1 ACP        -0.6636
      9 PA          2.1358   -2.2685   -3.6578 P.3       1 ACP         1.6023
     10 O1A         2.4970   -1.2612   -4.7281 O.co2     1 ACP        -0.8673
     11 O2A         2.6457   -3.6911   -3.7347 O.co2     1 ACP        -0.8673
     12 O3A         0.5094   -2.3101   -3.5139 O.3       1 ACP        -0.8150
     13 O5'         2.5238   -1.6632   -2.1888 O.3       1 ACP        -0.5522
     14 C5'         2.2816   -0.2918   -1.9206 C.3       1 ACP         0.2181
     15 C4'         2.7248    0.0226   -0.4980 C.3       1 ACP         0.0915
     16 O4'         2.4697    1.4219   -0.2462 O.3       1 ACP        -0.3675
     17 C3'         1.9404   -0.7419    0.5596 C.3       1 ACP         0.0748
     18 O3'         2.7418   -0.8086    1.7389 O.3       1 ACP        -0.5646
     19 C2'         0.7477    0.1630    0.7858 C.3       1 ACP         0.0804
     20 O2'         0.1373   -0.0577    2.0407 O.3       1 ACP        -0.5882
     21 C1'         1.3733    1.5427    0.6747 C.3       1 ACP         0.3809
     22 N9          0.4520    2.5240    0.1767 N.pl3     1 ACP        -0.4412
     23 C8         -0.4598    3.4379    1.0068 C.ar      1 ACP         0.1936
     24 N7         -1.1770    4.2228    0.1845 N.2       1 ACP        -0.2746
     25 C5         -0.7330    3.8149   -1.0455 C.ar      1 ACP        -0.1386
     26 C6         -1.2413    4.4029   -2.3169 C.ar      1 ACP         0.4778
     27 N6         -2.1578    5.3575   -2.2831 N.pl3     1 ACP        -0.8290
     28 N1         -0.6977    3.8860   -3.4216 N.pl3     1 ACP        -0.6985
     29 C2          0.3002    2.8419   -3.3591 C.ar      1 ACP         0.6179
     30 N3          0.7548    2.3183   -2.2631 N.ar      1 ACP        -0.5105
     31 C4          0.2027    2.8430   -1.1309 C.ar      1 ACP         0.2753
     32 HOG2       -3.0326    0.3432   -1.6264 H         1 ACP         0.4487
     33 HOG3       -1.6920    0.7540   -4.1343 H         1 ACP         0.4487
     34 H3B1       -2.8010   -3.3764   -2.7550 H         1 ACP         0.1088
     35 H3B2       -1.9817   -3.1116   -4.2914 H         1 ACP         0.1088
     36 H5'1        2.8430    0.3138   -2.6391 H         1 ACP         0.0327
     37 H5'2        1.2126   -0.0907   -2.0421 H         1 ACP         0.0327
     38 H4'         3.8046   -0.1390   -0.4011 H         1 ACP         0.1275
     39 H3'         1.6787   -1.7627    0.2719 H         1 ACP         0.0637
     40 HO3'        2.2231   -1.2979    2.3952 H         1 ACP         0.4127
     41 H2'         0.0002   -0.0084   -0.0014 H         1 ACP         0.0692
     42 HO2'       -0.6132    0.5577    2.1063 H         1 ACP         0.4431
     43 H1'         1.7718    1.9211    1.6015 H         1 ACP         0.1199
     44 H8         -0.5892    3.5248    2.0902 H         1 ACP         0.2941
     45 HN61       -2.5128    5.6880   -1.3974 H         1 ACP         0.4754
     46 HN62       -2.5040    5.7581   -3.1431 H         1 ACP         0.4754
     47 H2          0.6550    2.5166   -4.3490 H         1 ACP         0.0886
     48 H48        -1.0101    4.2527   -4.3160 H         1 ACP         0.4707
@<TRIPOS>BOND
     1    1    2 2
     2    1    3 1
     3    1    4 1
     4    1    8 1
     5    3   32 1
     6    4   33 1
     7    5    6 2
     8    5    7 1
     9    5    8 1
    10    5   12 1
    11    8   34 1
    12    8   35 1
    13    9   10 2
    14    9   11 1
    15    9   12 1
    16    9   13 1
    17   13   14 1
    18   14   15 1
    19   14   36 1
    20   14   37 1
    21   15   16 1
    22   15   17 1
    23   15   38 1
    24   16   21 1
    25   17   18 1
    26   17   19 1
    27   17   39 1
    28   18   40 1
    29   19   20 1
    30   19   21 1
    31   19   41 1
    32   20   42 1
    33   21   22 1
    34   21   43 1
    35   22   23 ar
    36   22   31 ar
    37   23   24 ar
    38   23   44 1
    39   24   25 ar
    40   25   26 ar
    41   25   31 ar
    42   26   27 1
    43   26   28 ar
    44   27   45 1
    45   27   46 1
    46   28   29 ar
    47   28   48 1
    48   29   30 ar
    49   29   47 1
    50   30   31 ar
@<TRIPOS>SUBSTRUCTURE
     1 ACP         1 GROUP 0 A     ****
@<TRIPOS>MOLECULE
[[5-(6-amino-1,8-dihydropurine-6,8-diylium-7-id-9-yl)-3,4-dihydroxy-tetrahydrofuran-2-yl]methoxy-oxido-phosphoryl]oxy-(phosphonomethyl)phosphinate
   48    50     1     0     0
SMALL
USER_CHARGES

@<TRIPOS>ATOM
      1 PG         -1.2818    2.4759   -4.0729 P.3       1 ACP         1.6558
      2 O1G        -1.9698    3.7421   -3.6594 O.2       1 ACP        -0.9020
      3 O2G        -2.2415    1.3379   -4.7006 O.3       1 ACP        -0.8036
      4 O3G        -0.4926    1.7000   -2.8961 O.3       1 ACP        -0.8036
      5 PB          0.9806    1.2956   -6.0269 P.3       1 ACP         1.4945
      6 O1B         1.9236    1.8766   -7.0549 O.co2     1 ACP        -0.8481
      7 O2B         0.0187    0.1773   -6.3548 O.co2     1 ACP        -0.8481
      8 C3B        -0.0149    2.6961   -5.3425 C.3       1 ACP        -0.6636
      9 PA          3.0640   -0.0874   -4.4291 P.3       1 ACP         1.6023
     10 O1A         4.2648    0.4427   -5.1825 O.co2     1 ACP        -0.8673
     11 O2A         2.5794   -1.5038   -4.6499 O.co2     1 ACP        -0.8673
     12 O3A         1.8101    0.9308   -4.6711 O.3       1 ACP        -0.8150
     13 O5'         3.2885    0.1337   -2.8242 O.3       1 ACP        -0.5522
     14 C5'         2.2816   -0.2918   -1.9206 C.3       1 ACP         0.2181
     15 C4'         2.7248    0.0226   -0.4980 C.3       1 ACP         0.0915
     16 O4'         2.4697    1.4219   -0.2462 O.3       1 ACP        -0.3675
     17 C3'         1.9404   -0.7419    0.5596 C.3       1 ACP         0.0748
     18 O3'         2.7418   -0.8086    1.7389 O.3       1 ACP        -0.5646
     19 C2'         0.7477    0.1630    0.7858 C.3       1 ACP         0.0804
     20 O2'         0.1373   -0.0577    2.0407 O.3       1 ACP        -0.5882
     21 C1'         1.3733    1.5427    0.6747 C.3       1 ACP         0.3809
     22 N9          0.4520    2.5240    0.1767 N.pl3     1 ACP        -0.4412
     23 C8         -1.0660    2.5608    0.3999 C.ar      1 ACP         0.1936
     24 N7         -1.5852    3.6333   -0.2221 N.2       1 ACP        -0.2746
     25 C5         -0.4682    4.1996   -0.7771 C.ar      1 ACP        -0.1386
     26 C6         -0.5216    5.4476   -1.5899 C.ar      1 ACP         0.4778
     27 N6         -1.6813    6.0510   -1.7982 N.pl3     1 ACP        -0.8290
     28 N1          0.6621    5.8575   -2.0523 N.pl3     1 ACP        -0.6985
     29 C2          1.8795    5.1301   -1.7717 C.ar      1 ACP         0.6179
     30 N3          1.9458    4.0434   -1.0670 N.ar      1 ACP        -0.5105
     31 C4          0.7388    3.6199   -0.5917 C.ar      1 ACP         0.2753
     32 HOG2       -2.9731    0.9792   -4.1546 H         1 ACP         0.4487
     33 HOG3       -0.9940    1.3892   -2.1125 H         1 ACP         0.4487
     34 H3B1       -0.4926    3.1683   -6.2084 H         1 ACP         0.1088
     35 H3B2        0.7121    3.4149   -4.9475 H         1 ACP         0.1088
     36 H5'1        1.3501    0.2325   -2.1561 H         1 ACP         0.0327
     37 H5'2        2.1268   -1.3683   -2.0445 H         1 ACP         0.0327
     38 H4'         3.8046   -0.1390   -0.4011 H         1 ACP         0.1275
     39 H3'         1.6787   -1.7627    0.2719 H         1 ACP         0.0637
     40 HO3'        3.5553   -1.2733    1.4913 H         1 ACP         0.4127
     41 H2'         0.0002   -0.0084   -0.0014 H         1 ACP         0.0692
     42 HO2'        0.8091    0.1203    2.7213 H         1 ACP         0.4431
     43 H1'         1.7718    1.9211    1.6015 H         1 ACP         0.1199
     44 H8         -1.7235    1.8833    0.9537 H         1 ACP         0.2941
     45 HN61       -2.5296    5.6672   -1.4072 H         1 ACP         0.4754
     46 HN62       -1.7205    6.8969   -2.3483 H         1 ACP         0.4754
     47 H2          2.7750    5.5878   -2.2190 H         1 ACP         0.0886
     48 H48         0.6808    6.7046   -2.6128 H         1 ACP         0.4707
@<TRIPOS>BOND
     1    1    2 2
     2    1    3 1
     3    1    4 1
     4    1    8 1
     5    3   32 1
     6    4   33 1
     7    5    6 2
     8    5    7 1
     9    5    8 1
    10    5   12 1
    11    8   34 1
    12    8   35 1
    13    9   10 2
    14    9   11 1
    15    9   12 1
    16    9   13 1
    17   13   14 1
    18   14   15 1
    19   14   36 1
    20   14   37 1
    21   15   16 1
    22   15   17 1
    23   15   38 1
    24   16   21 1
    25   17   18 1
    26   17   19 1
    27   17   39 1
    28   18   40 1
    29   19   20 1
    30   19   21 1
    31   19   41 1
    32   20   42 1
    33   21   22 1
    34   21   43 1
    35   22   23 ar
    36   22   31 ar
    37   23   24 ar
    38   23   44 1
    39   24   25 ar
    40   25   26 ar
    41   25   31 ar
    42   26   27 1
    43   26   28 ar
    44   27   45 1
    45   27   46 1
    46   28   29 ar
    47   28   48 1
    48   29   30 ar
    49   29   47 1
    50   30   31 ar
@<TRIPOS>SUBSTRUCTURE
     1 ACP         1 GROUP 0 A     ****
@<TRIPOS>MOLECULE
[[5-(6-amino-1,8-dihydropurine-6,8-diylium-7-id-9-yl)-3,4-dihydroxy-tetrahydrofuran-2-yl]methoxy-oxido-phosphoryl]oxy-(phosphonomethyl)phosphinate
   48    50     1     0     0
SMALL
USER_CHARGES

@<TRIPOS>ATOM
      1 PG          2.9412    2.4713   -5.8028 P.3       1 ACP         1.6558
      2 O1G         2.4870    2.3697   -4.3778 O.2       1 ACP        -0.9020
      3 O2G         3.8262    3.7756   -6.1578 O.3       1 ACP        -0.8036
      4 O3G         1.7612    2.5018   -6.9056 O.3       1 ACP        -0.8036
      5 PB          3.4165   -0.6593   -6.3536 P.3       1 ACP         1.4945
      6 O1B         4.5595   -1.4977   -6.8772 O.co2     1 ACP        -0.8481
      7 O2B         2.0410   -0.6893   -6.9786 O.co2     1 ACP        -0.8481
      8 C3B         3.9834    1.1013   -6.3527 C.3       1 ACP        -0.6636
      9 PA          2.6171   -2.0488   -3.8563 P.3       1 ACP         1.6023
     10 O1A         3.4076   -3.3191   -4.0840 O.co2     1 ACP        -0.8673
     11 O2A         1.1208   -2.0213   -4.0811 O.co2     1 ACP        -0.8673
     12 O3A         3.2937   -0.8528   -4.7390 O.3       1 ACP        -0.8150
     13 O5'         2.9203   -1.4822   -2.3523 O.3       1 ACP        -0.5522
     14 C5'         2.2816   -0.2918   -1.9206 C.3       1 ACP         0.2181
     15 C4'         2.7248    0.0226   -0.4980 C.3       1 ACP         0.0915
     16 O4'         2.4697    1.4219   -0.2462 O.3       1 ACP        -0.3675
     17 C3'         1.9404   -0.7419    0.5596 C.3       1 ACP         0.0748
     18 O3'         2.7418   -0.8086    1.7389 O.3       1 ACP        -0.5646
     19 C2'         0.7477    0.1630    0.7858 C.3       1 ACP         0.0804
     20 O2'         0.1373   -0.0577    2.0407 O.3       1 ACP        -0.5882
     21 C1'         1.3733    1.5427    0.6747 C.3       1 ACP         0.3809
     22 N9          0.4520    2.5240    0.1767 N.pl3     1 ACP        -0.4412
     23 C8         -0.3054    2.4845   -1.1576 C.ar      1 ACP         0.1936
     24 N7         -1.0755    3.5806   -1.2691 N.2       1 ACP        -0.2746
     25 C5         -0.8043    4.2306   -0.0942 C.ar      1 ACP        -0.1386
     26 C6         -1.4324    5.5335    0.2646 C.ar      1 ACP         0.4778
     27 N6         -2.2885    6.1054   -0.5675 N.pl3     1 ACP        -0.8290
     28 N1         -1.0537    6.0229    1.4478 N.pl3     1 ACP        -0.6985
     29 C2         -0.1096    5.3242    2.2908 C.ar      1 ACP         0.6179
     30 N3          0.4468    4.1904    1.9960 N.ar      1 ACP        -0.5105
     31 C4          0.0631    3.6855    0.7877 C.ar      1 ACP         0.2753
     32 HOG2        3.4350    4.6653   -6.0261 H         1 ACP         0.4487
     33 HOG3        1.0981    3.2238   -6.8722 H         1 ACP         0.4487
     34 H3B1        4.2905    1.3120   -7.3833 H         1 ACP         0.1088
     35 H3B2        4.8906    1.1231   -5.7383 H         1 ACP         0.1088
     36 H5'1        2.5581    0.5234   -2.5967 H         1 ACP         0.0327
     37 H5'2        1.1975   -0.4371   -1.9608 H         1 ACP         0.0327
     38 H4'         3.8046   -0.1390   -0.4011 H         1 ACP         0.1275
     39 H3'         1.6787   -1.7627    0.2719 H         1 ACP         0.0637
     40 HO3'        2.2231   -1.2979    2.3952 H         1 ACP         0.4127
     41 H2'         0.0002   -0.0084   -0.0014 H         1 ACP         0.0692
     42 HO2'       -0.6132    0.5577    2.1063 H         1 ACP         0.4431
     43 H1'         1.7718    1.9211    1.6015 H         1 ACP         0.1199
     44 H8         -0.2991    1.7413   -1.9611 H         1 ACP         0.2941
     45 HN61       -2.5167    5.6603   -1.4447 H         1 ACP         0.4754
     46 HN62       -2.7159    6.9882   -0.3270 H         1 ACP         0.4754
     47 H2          0.1059    5.8491    3.2340 H         1 ACP         0.0886
     48 H48        -1.4532    6.9099    1.7401 H         1 ACP         0.4707
@<TRIPOS>BOND
     1    1    2 2
     2    1    3 1
     3    1    4 1
     4    1    8 1
     5    3   32 1
     6    4   33 1
     7    5    6 2
     8    5    7 1
     9    5    8 1
    10    5   12 1
    11    8   34 1
    12    8   35 1
    13    9   10 2
    14    9   11 1
    15    9   12 1
    16    9   13 1
    17   13   14 1
    18   14   15 1
    19   14   36 1
    20   14   37 1
    21   15   16 1
    22   15   17 1
    23   15   38 1
    24   16   21 1
    25   17   18 1
    26   17   19 1
    27   17   39 1
    28   18   40 1
    29   19   20 1
    30   19   21 1
    31   19   41 1
    32   20   42 1
    33   21   22 1
    34   21   43 1
    35   22   23 ar
    36   22   31 ar
    37   23   24 ar
    38   23   44 1
    39   24   25 ar
    40   25   26 ar
    41   25   31 ar
    42   26   27 1
    43   26   28 ar
    44   27   45 1
    45   27   46 1
    46   28   29 ar
    47   28   48 1
    48   29   30 ar
    49   29   47 1
    50   30   31 ar
@<TRIPOS>SUBSTRUCTURE
     1 ACP         1 GROUP 0 A     ****
@<TRIPOS>MOLECULE
[[5-(6-amino-1,8-dihydropurine-6,8-diylium-7-id-9-yl)-3,4-dihydroxy-tetrahydrofuran-2-yl]methoxy-oxido-phosphoryl]oxy-(phosphonomethyl)phosphinate
   48    50     1     0     0
SMALL
USER_CHARGES

@<TRIPOS>ATOM
      1 PG         -0.1096   -0.4156   -7.8407 P.3       1 ACP         1.6558
      2 O1G         0.2309    0.6765   -8.8095 O.2       1 ACP        -0.9020
      3 O2G         1.0484   -1.5164   -7.6008 O.3       1 ACP        -0.8036
      4 O3G        -1.4036   -1.3035   -8.2243 O.3       1 ACP        -0.8036
      5 PB          0.7207    1.1029   -5.1325 P.3       1 ACP         1.4945
      6 O1B         0.0421    1.4019   -3.8158 O.co2     1 ACP        -0.8481
      7 O2B         1.3099    2.1894   -6.0019 O.co2     1 ACP        -0.8481
      8 C3B        -0.4862    0.1605   -6.1699 C.3       1 ACP        -0.6636
      9 PA          3.3317   -0.0541   -4.3262 P.3       1 ACP         1.6023
     10 O1A         4.1267    0.9765   -5.0986 O.co2     1 ACP        -0.8673
     11 O2A         3.8308   -1.4772   -4.2013 O.co2     1 ACP        -0.8673
     12 O3A         1.8123   -0.0905   -4.9242 O.3       1 ACP        -0.8150
     13 O5'         3.0199    0.5139   -2.8245 O.3       1 ACP        -0.5522
     14 C5'         2.2816   -0.2918   -1.9206 C.3       1 ACP         0.2181
     15 C4'         2.7248    0.0226   -0.4980 C.3       1 ACP         0.0915
     16 O4'         2.4697    1.4219   -0.2462 O.3       1 ACP        -0.3675
     17 C3'         1.9404   -0.7419    0.5596 C.3       1 ACP         0.0748
     18 O3'         2.7418   -0.8086    1.7389 O.3       1 ACP        -0.5646
     19 C2'         0.7477    0.1630    0.7858 C.3       1 ACP         0.0804
     20 O2'         0.1373   -0.0577    2.0407 O.3       1 ACP        -0.5882
     21 C1'         1.3733    1.5427    0.6747 C.3       1 ACP         0.3809
     22 N9          0.4520    2.5240    0.1767 N.pl3     1 ACP        -0.4412
     23 C8          0.5793    3.3338   -1.1209 C.ar      1 ACP         0.1936
     24 N7         -0.4807    4.1508   -1.2458 N.2       1 ACP        -0.2746
     25 C5         -1.1921    3.8572   -0.1126 C.ar      1 ACP        -0.1386
     26 C6         -2.4855    4.5203    0.2163 C.ar      1 ACP         0.4778
     27 N6         -2.9873    5.4319   -0.6020 N.pl3     1 ACP        -0.8290
     28 N1         -3.0414    4.1119    1.3596 N.pl3     1 ACP        -0.6985
     29 C2         -2.4169    3.1071    2.1904 C.ar      1 ACP         0.6179
     30 N3         -1.2928    2.5191    1.9210 N.ar      1 ACP        -0.5105
     31 C4         -0.7202    2.9326    0.7534 C.ar      1 ACP         0.2753
     32 HOG2        1.3697   -2.0420   -8.3641 H         1 ACP         0.4487
     33 HOG3       -1.4050   -1.8007   -9.0697 H         1 ACP         0.4487
     34 H3B1       -1.3786    0.7935   -6.2313 H         1 ACP         0.1088
     35 H3B2       -0.7608   -0.7224   -5.5815 H         1 ACP         0.1088
     36 H5'1        1.2154   -0.0780   -2.0455 H         1 ACP         0.0327
     37 H5'2        2.4646   -1.3453   -2.1548 H         1 ACP         0.0327
     38 H4'         3.8046   -0.1390   -0.4011 H         1 ACP         0.1275
     39 H3'         1.6787   -1.7627    0.2719 H         1 ACP         0.0637
     40 HO3'        2.2231   -1.2979    2.3952 H         1 ACP         0.4127
     41 H2'         0.0002   -0.0084   -0.0014 H         1 ACP         0.0692
     42 HO2'       -0.1554   -0.9852    2.0577 H         1 ACP         0.4431
     43 H1'         1.7718    1.9211    1.6015 H         1 ACP         0.1199
     44 H8          1.3565    3.3309   -1.8916 H         1 ACP         0.2941
     45 HN61       -2.4952    5.6785   -1.4487 H         1 ACP         0.4754
     46 HN62       -3.8637    5.8828   -0.3819 H         1 ACP         0.4754
     47 H2         -2.9911    2.8734    3.1000 H         1 ACP         0.0886
     48 H48        -3.9253    4.5332    1.6302 H         1 ACP         0.4707
@<TRIPOS>BOND
     1    1    2 2
     2    1    3 1
     3    1    4 1
     4    1    8 1
     5    3   32 1
     6    4   33 1
     7    5    6 2
     8    5    7 1
     9    5    8 1
    10    5   12 1
    11    8   34 1
    12    8   35 1
    13    9   10 2
    14    9   11 1
    15    9   12 1
    16    9   13 1
    17   13   14 1
    18   14   15 1
    19   14   36 1
    20   14   37 1
    21   15   16 1
    22   15   17 1
    23   15   38 1
    24   16   21 1
    25   17   18 1
    26   17   19 1
    27   17   39 1
    28   18   40 1
    29   19   20 1
    30   19   21 1
    31   19   41 1
    32   20   42 1
    33   21   22 1
    34   21   43 1
    35   22   23 ar
    36   22   31 ar
    37   23   24 ar
    38   23   44 1
    39   24   25 ar
    40   25   26 ar
    41   25   31 ar
    42   26   27 1
    43   26   28 ar
    44   27   45 1
    45   27   46 1
    46   28   29 ar
    47   28   48 1
    48   29   30 ar
    49   29   47 1
    50   30   31 ar
@<TRIPOS>SUBSTRUCTURE
     1 ACP         1 GROUP 0 A     ****
@<TRIPOS>MOLECULE
[[5-(6-amino-1,8-dihydropurine-6,8-diylium-7-id-9-yl)-3,4-dihydroxy-tetrahydrofuran-2-yl]methoxy-oxido-phosphoryl]oxy-(phosphonomethyl)phosphinate
   48    50     1     0     0
SMALL
USER_CHARGES

@<TRIPOS>ATOM
      1 PG          1.3514   -0.3249   -6.9135 P.3       1 ACP         1.6558
      2 O1G         2.4314    0.0099   -5.9292 O.2       1 ACP        -0.9020
      3 O2G         1.7033   -1.5102   -7.9534 O.3       1 ACP        -0.8036
      4 O3G         0.8832    0.8911   -7.8685 O.3       1 ACP        -0.8036
      5 PB         -0.3143   -2.3748   -5.0823 P.3       1 ACP         1.4945
      6 O1B         0.1300   -3.5597   -5.9083 O.co2     1 ACP        -0.8481
      7 O2B        -1.6590   -2.3289   -4.3945 O.co2     1 ACP        -0.8481
      8 C3B        -0.1964   -0.8782   -6.1628 C.3       1 ACP        -0.6636
      9 PA          1.2667   -2.6319   -2.5842 P.3       1 ACP         1.6023
     10 O1A         1.7714   -4.0387   -2.8224 O.co2     1 ACP        -0.8673
     11 O2A         0.1413   -2.3719   -1.6065 O.co2     1 ACP        -0.8673
     12 O3A         0.8610   -1.9767   -4.0243 O.3       1 ACP        -0.8150
     13 O5'         2.5238   -1.6632   -2.1888 O.3       1 ACP        -0.5522
     14 C5'         2.2816   -0.2918   -1.9206 C.3       1 ACP         0.2181
     15 C4'         2.7248    0.0226   -0.4980 C.3       1 ACP         0.0915
     16 O4'         2.4697    1.4219   -0.2462 O.3       1 ACP        -0.3675
     17 C3'         1.9404   -0.7419    0.5596 C.3       1 ACP         0.0748
     18 O3'         2.7418   -0.8086    1.7389 O.3       1 ACP        -0.5646
     19 C2'         0.7477    0.1630    0.7858 C.3       1 ACP         0.0804
     20 O2'         0.1373   -0.0577    2.0407 O.3       1 ACP        -0.5882
     21 C1'         1.3733    1.5427    0.6747 C.3       1 ACP         0.3809
     22 N9          0.4520    2.5240    0.1767 N.pl3     1 ACP        -0.4412
     23 C8          0.1798    2.8712   -1.2933 C.ar      1 ACP         0.1936
     24 N7         -0.7494    3.8400   -1.3610 N.2       1 ACP        -0.2746
     25 C5         -1.0173    4.0603   -0.0358 C.ar      1 ACP        -0.1386
     26 C6         -2.0105    5.0717    0.4241 C.ar      1 ACP         0.4778
     27 N6         -2.6723    5.7982   -0.4628 N.pl3     1 ACP        -0.8290
     28 N1         -2.1445    5.1522    1.7502 N.pl3     1 ACP        -0.6985
     29 C2         -1.3755    4.3143    2.6426 C.ar      1 ACP         0.6179
     30 N3         -0.5075    3.4292    2.2616 N.ar      1 ACP        -0.5105
     31 C4         -0.3667    3.3425    0.9070 C.ar      1 ACP         0.2753
     32 HOG2        2.4717   -1.4032   -8.5535 H         1 ACP         0.4487
     33 HOG3        1.5436    1.3143   -8.4573 H         1 ACP         0.4487
     34 H3B1       -0.5873   -0.0497   -5.5614 H         1 ACP         0.1088
     35 H3B2       -0.9074   -1.0428   -6.9803 H         1 ACP         0.1088
     36 H5'1        2.8430    0.3138   -2.6391 H         1 ACP         0.0327
     37 H5'2        1.2126   -0.0907   -2.0421 H         1 ACP         0.0327
     38 H4'         3.8046   -0.1390   -0.4011 H         1 ACP         0.1275
     39 H3'         1.6787   -1.7627    0.2719 H         1 ACP         0.0637
     40 HO3'        2.2231   -1.2979    2.3952 H         1 ACP         0.4127
     41 H2'         0.0002   -0.0084   -0.0014 H         1 ACP         0.0692
     42 HO2'       -0.6132    0.5577    2.1063 H         1 ACP         0.4431
     43 H1'         1.7718    1.9211    1.6015 H         1 ACP         0.1199
     44 H8          0.6089    2.4651   -2.2147 H         1 ACP         0.2941
     45 HN61       -2.5055    5.6680   -1.4503 H         1 ACP         0.4754
     46 HN62       -3.3462    6.4841   -0.1542 H         1 ACP         0.4754
     47 H2         -1.5932    4.4937    3.7066 H         1 ACP         0.0886
     48 H48        -2.8098    5.8270    2.1160 H         1 ACP         0.4707
@<TRIPOS>BOND
     1    1    2 2
     2    1    3 1
     3    1    4 1
     4    1    8 1
     5    3   32 1
     6    4   33 1
     7    5    6 2
     8    5    7 1
     9    5    8 1
    10    5   12 1
    11    8   34 1
    12    8   35 1
    13    9   10 2
    14    9   11 1
    15    9   12 1
    16    9   13 1
    17   13   14 1
    18   14   15 1
    19   14   36 1
    20   14   37 1
    21   15   16 1
    22   15   17 1
    23   15   38 1
    24   16   21 1
    25   17   18 1
    26   17   19 1
    27   17   39 1
    28   18   40 1
    29   19   20 1
    30   19   21 1
    31   19   41 1
    32   20   42 1
    33   21   22 1
    34   21   43 1
    35   22   23 ar
    36   22   31 ar
    37   23   24 ar
    38   23   44 1
    39   24   25 ar
    40   25   26 ar
    41   25   31 ar
    42   26   27 1
    43   26   28 ar
    44   27   45 1
    45   27   46 1
    46   28   29 ar
    47   28   48 1
    48   29   30 ar
    49   29   47 1
    50   30   31 ar
@<TRIPOS>SUBSTRUCTURE
     1 ACP         1 GROUP 0 A     ****
@<TRIPOS>MOLECULE
[[5-(6-amino-1,8-dihydropurine-6,8-diylium-7-id-9-yl)-3,4-dihydroxy-tetrahydrofuran-2-yl]methoxy-oxido-phosphoryl]oxy-(phosphonomethyl)phosphinate
   48    50     1     0     0
SMALL
USER_CHARGES

@<TRIPOS>ATOM
      1 PG          2.1033   -2.5149   -7.9045 P.3       1 ACP         1.6558
      2 O1G         2.4241   -1.6050   -9.0519 O.2       1 ACP        -0.9020
      3 O2G         3.3766   -3.0501   -7.0663 O.3       1 ACP        -0.8036
      4 O3G         1.3095   -3.8670   -8.2935 O.3       1 ACP        -0.8036
      5 PB          1.5391   -0.2631   -5.6817 P.3       1 ACP         1.4945
      6 O1B         0.4108    0.0444   -4.7247 O.co2     1 ACP        -0.8481
      7 O2B         2.0532    0.7518   -6.6763 O.co2     1 ACP        -0.8481
      8 C3B         1.0538   -1.7721   -6.6347 C.3       1 ACP        -0.6636
      9 PA          3.9531   -0.2088   -3.9567 P.3       1 ACP         1.6023
     10 O1A         4.6365    0.8495   -4.7954 O.co2     1 ACP        -0.8673
     11 O2A         4.7595   -1.2976   -3.2826 O.co2     1 ACP        -0.8673
     12 O3A         2.7887   -0.9130   -4.8599 O.3       1 ACP        -0.8150
     13 O5'         3.0199    0.5139   -2.8245 O.3       1 ACP        -0.5522
     14 C5'         2.2816   -0.2918   -1.9206 C.3       1 ACP         0.2181
     15 C4'         2.7248    0.0226   -0.4980 C.3       1 ACP         0.0915
     16 O4'         2.4697    1.4219   -0.2462 O.3       1 ACP        -0.3675
     17 C3'         1.9404   -0.7419    0.5596 C.3       1 ACP         0.0748
     18 O3'         2.7418   -0.8086    1.7389 O.3       1 ACP        -0.5646
     19 C2'         0.7477    0.1630    0.7858 C.3       1 ACP         0.0804
     20 O2'         0.1373   -0.0577    2.0407 O.3       1 ACP        -0.5882
     21 C1'         1.3733    1.5427    0.6747 C.3       1 ACP         0.3809
     22 N9          0.4520    2.5240    0.1767 N.pl3     1 ACP        -0.4412
     23 C8         -0.3054    2.4845   -1.1576 C.ar      1 ACP         0.1936
     24 N7         -1.0755    3.5806   -1.2691 N.2       1 ACP        -0.2746
     25 C5         -0.8043    4.2306   -0.0942 C.ar      1 ACP        -0.1386
     26 C6         -1.4324    5.5335    0.2646 C.ar      1 ACP         0.4778
     27 N6         -2.2885    6.1054   -0.5675 N.pl3     1 ACP        -0.8290
     28 N1         -1.0537    6.0229    1.4478 N.pl3     1 ACP        -0.6985
     29 C2         -0.1096    5.3242    2.2908 C.ar      1 ACP         0.6179
     30 N3          0.4468    4.1904    1.9960 N.ar      1 ACP        -0.5105
     31 C4          0.0631    3.6855    0.7877 C.ar      1 ACP         0.2753
     32 HOG2        4.0640   -3.5744   -7.5296 H         1 ACP         0.4487
     33 HOG3        1.7247   -4.4987   -8.9184 H         1 ACP         0.4487
     34 H3B1        0.0921   -1.5293   -7.1006 H         1 ACP         0.1088
     35 H3B2        0.8591   -2.5488   -5.8863 H         1 ACP         0.1088
     36 H5'1        1.2154   -0.0780   -2.0455 H         1 ACP         0.0327
     37 H5'2        2.4646   -1.3453   -2.1548 H         1 ACP         0.0327
     38 H4'         3.8046   -0.1390   -0.4011 H         1 ACP         0.1275
     39 H3'         1.6787   -1.7627    0.2719 H         1 ACP         0.0637
     40 HO3'        2.2231   -1.2979    2.3952 H         1 ACP         0.4127
     41 H2'         0.0002   -0.0084   -0.0014 H         1 ACP         0.0692
     42 HO2'       -0.1554   -0.9852    2.0577 H         1 ACP         0.4431
     43 H1'         1.7718    1.9211    1.6015 H         1 ACP         0.1199
     44 H8         -0.2991    1.7413   -1.9611 H         1 ACP         0.2941
     45 HN61       -2.5167    5.6603   -1.4447 H         1 ACP         0.4754
     46 HN62       -2.7159    6.9882   -0.3270 H         1 ACP         0.4754
     47 H2          0.1059    5.8491    3.2340 H         1 ACP         0.0886
     48 H48        -1.4532    6.9099    1.7401 H         1 ACP         0.4707
@<TRIPOS>BOND
     1    1    2 2
     2    1    3 1
     3    1    4 1
     4    1    8 1
     5    3   32 1
     6    4   33 1
     7    5    6 2
     8    5    7 1
     9    5    8 1
    10    5   12 1
    11    8   34 1
    12    8   35 1
    13    9   10 2
    14    9   11 1
    15    9   12 1
    16    9   13 1
    17   13   14 1
    18   14   15 1
    19   14   36 1
    20   14   37 1
    21   15   16 1
    22   15   17 1
    23   15   38 1
    24   16   21 1
    25   17   18 1
    26   17   19 1
    27   17   39 1
    28   18   40 1
    29   19   20 1
    30   19   21 1
    31   19   41 1
    32   20   42 1
    33   21   22 1
    34   21   43 1
    35   22   23 ar
    36   22   31 ar
    37   23   24 ar
    38   23   44 1
    39   24   25 ar
    40   25   26 ar
    41   25   31 ar
    42   26   27 1
    43   26   28 ar
    44   27   45 1
    45   27   46 1
    46   28   29 ar
    47   28   48 1
    48   29   30 ar
    49   29   47 1
    50   30   31 ar
@<TRIPOS>SUBSTRUCTURE
     1 ACP         1 GROUP 0 A     ****
@<TRIPOS>MOLECULE
[[5-(6-amino-1,8-dihydropurine-6,8-diylium-7-id-9-yl)-3,4-dihydroxy-tetrahydrofuran-2-yl]methoxy-oxido-phosphoryl]oxy-(phosphonomethyl)phosphinate
   48    50     1     0     0
SMALL
USER_CHARGES

@<TRIPOS>ATOM
      1 PG         -0.4051   -2.6089   -4.8095 P.3       1 ACP         1.6558
      2 O1G        -1.4121   -3.5897   -5.3303 O.2       1 ACP        -0.9020
      3 O2G         0.7726   -3.2398   -3.9010 O.3       1 ACP        -0.8036
      4 O3G        -1.0033   -1.4254   -3.8869 O.3       1 ACP        -0.8036
      5 PB          1.7933   -0.4483   -5.7199 P.3       1 ACP         1.4945
      6 O1B         1.1321    0.6458   -4.9141 O.co2     1 ACP        -0.8481
      7 O2B         2.5336   -0.1677   -7.0071 O.co2     1 ACP        -0.8481
      8 C3B         0.4971   -1.7135   -6.0940 C.3       1 ACP        -0.6636
      9 PA          3.9981   -0.9679   -3.8029 P.3       1 ACP         1.6023
     10 O1A         5.0312   -0.2798   -4.6687 O.co2     1 ACP        -0.8673
     11 O2A         4.3716   -2.1736   -2.9681 O.co2     1 ACP        -0.8673
     12 O3A         2.7194   -1.3641   -4.7386 O.3       1 ACP        -0.8150
     13 O5'         3.2885    0.1337   -2.8242 O.3       1 ACP        -0.5522
     14 C5'         2.2816   -0.2918   -1.9206 C.3       1 ACP         0.2181
     15 C4'         2.7248    0.0226   -0.4980 C.3       1 ACP         0.0915
     16 O4'         2.4697    1.4219   -0.2462 O.3       1 ACP        -0.3675
     17 C3'         1.9404   -0.7419    0.5596 C.3       1 ACP         0.0748
     18 O3'         2.7418   -0.8086    1.7389 O.3       1 ACP        -0.5646
     19 C2'         0.7477    0.1630    0.7858 C.3       1 ACP         0.0804
     20 O2'         0.1373   -0.0577    2.0407 O.3       1 ACP        -0.5882
     21 C1'         1.3733    1.5427    0.6747 C.3       1 ACP         0.3809
     22 N9          0.4520    2.5240    0.1767 N.pl3     1 ACP        -0.4412
     23 C8         -0.3054    2.4845   -1.1576 C.ar      1 ACP         0.1936
     24 N7         -1.0755    3.5806   -1.2691 N.2       1 ACP        -0.2746
     25 C5         -0.8043    4.2306   -0.0942 C.ar      1 ACP        -0.1386
     26 C6         -1.4324    5.5335    0.2646 C.ar      1 ACP         0.4778
     27 N6         -2.2885    6.1054   -0.5675 N.pl3     1 ACP        -0.8290
     28 N1         -1.0537    6.0229    1.4478 N.pl3     1 ACP        -0.6985
     29 C2         -0.1096    5.3242    2.2908 C.ar      1 ACP         0.6179
     30 N3          0.4468    4.1904    1.9960 N.ar      1 ACP        -0.5105
     31 C4          0.0631    3.6855    0.7877 C.ar      1 ACP         0.2753
     32 HOG2        0.5341   -3.7133   -3.0758 H         1 ACP         0.4487
     33 HOG3       -1.4758   -1.6602   -3.0601 H         1 ACP         0.4487
     34 H3B1        0.9870   -2.4565   -6.7334 H         1 ACP         0.1088
     35 H3B2       -0.2498   -1.2027   -6.7123 H         1 ACP         0.1088
     36 H5'1        1.3501    0.2325   -2.1561 H         1 ACP         0.0327
     37 H5'2        2.1268   -1.3683   -2.0445 H         1 ACP         0.0327
     38 H4'         3.8046   -0.1390   -0.4011 H         1 ACP         0.1275
     39 H3'         1.6787   -1.7627    0.2719 H         1 ACP         0.0637
     40 HO3'        3.5553   -1.2733    1.4913 H         1 ACP         0.4127
     41 H2'         0.0002   -0.0084   -0.0014 H         1 ACP         0.0692
     42 HO2'       -0.1554   -0.9852    2.0577 H         1 ACP         0.4431
     43 H1'         1.7718    1.9211    1.6015 H         1 ACP         0.1199
     44 H8         -0.2991    1.7413   -1.9611 H         1 ACP         0.2941
     45 HN61       -2.5167    5.6603   -1.4447 H         1 ACP         0.4754
     46 HN62       -2.7159    6.9882   -0.3270 H         1 ACP         0.4754
     47 H2          0.1059    5.8491    3.2340 H         1 ACP         0.0886
     48 H48        -1.4532    6.9099    1.7401 H         1 ACP         0.4707
@<TRIPOS>BOND
     1    1    2 2
     2    1    3 1
     3    1    4 1
     4    1    8 1
     5    3   32 1
     6    4   33 1
     7    5    6 2
     8    5    7 1
     9    5    8 1
    10    5   12 1
    11    8   34 1
    12    8   35 1
    13    9   10 2
    14    9   11 1
    15    9   12 1
    16    9   13 1
    17   13   14 1
    18   14   15 1
    19   14   36 1
    20   14   37 1
    21   15   16 1
    22   15   17 1
    23   15   38 1
    24   16   21 1
    25   17   18 1
    26   17   19 1
    27   17   39 1
    28   18   40 1
    29   19   20 1
    30   19   21 1
    31   19   41 1
    32   20   42 1
    33   21   22 1
    34   21   43 1
    35   22   23 ar
    36   22   31 ar
    37   23   24 ar
    38   23   44 1
    39   24   25 ar
    40   25   26 ar
    41   25   31 ar
    42   26   27 1
    43   26   28 ar
    44   27   45 1
    45   27   46 1
    46   28   29 ar
    47   28   48 1
    48   29   30 ar
    49   29   47 1
    50   30   31 ar
@<TRIPOS>SUBSTRUCTURE
     1 ACP         1 GROUP 0 A     ****
@<TRIPOS>MOLECULE
[[5-(6-amino-1,8-dihydropurine-6,8-diylium-7-id-9-yl)-3,4-dihydroxy-tetrahydrofuran-2-yl]methoxy-oxido-phosphoryl]oxy-(phosphonomethyl)phosphinate
   48    50     1     0     0
SMALL
USER_CHARGES

@<TRIPOS>ATOM
      1 PG          6.8017    1.6289   -3.2148 P.3       1 ACP         1.6558
      2 O1G         6.0291    1.1674   -2.0159 O.2       1 ACP        -0.9020
      3 O2G         8.1487    0.7963   -3.5350 O.3       1 ACP        -0.8036
      4 O3G         7.3065    3.1627   -3.1654 O.3       1 ACP        -0.8036
      5 PB          5.1998   -0.0285   -5.4545 P.3       1 ACP         1.4945
      6 O1B         6.3649   -0.9657   -5.6733 O.co2     1 ACP        -0.8481
      7 O2B         4.2420    0.3410   -6.5634 O.co2     1 ACP        -0.8481
      8 C3B         5.8846    1.5472   -4.7696 C.3       1 ACP        -0.6636
      9 PA          3.2507   -1.6777   -3.9421 P.3       1 ACP         1.6023
     10 O1A         3.9275   -3.0146   -4.1544 O.co2     1 ACP        -0.8673
     11 O2A         2.0156   -1.3049   -4.7330 O.co2     1 ACP        -0.8673
     12 O3A         4.3633   -0.4977   -4.1357 O.3       1 ACP        -0.8150
     13 O5'         2.9203   -1.4822   -2.3523 O.3       1 ACP        -0.5522
     14 C5'         2.2816   -0.2918   -1.9206 C.3       1 ACP         0.2181
     15 C4'         2.7248    0.0226   -0.4980 C.3       1 ACP         0.0915
     16 O4'         2.4697    1.4219   -0.2462 O.3       1 ACP        -0.3675
     17 C3'         1.9404   -0.7419    0.5596 C.3       1 ACP         0.0748
     18 O3'         2.7418   -0.8086    1.7389 O.3       1 ACP        -0.5646
     19 C2'         0.7477    0.1630    0.7858 C.3       1 ACP         0.0804
     20 O2'         0.1373   -0.0577    2.0407 O.3       1 ACP        -0.5882
     21 C1'         1.3733    1.5427    0.6747 C.3       1 ACP         0.3809
     22 N9          0.4520    2.5240    0.1767 N.pl3     1 ACP        -0.4412
     23 C8         -0.3054    2.4845   -1.1576 C.ar      1 ACP         0.1936
     24 N7         -1.0755    3.5806   -1.2691 N.2       1 ACP        -0.2746
     25 C5         -0.8043    4.2306   -0.0942 C.ar      1 ACP        -0.1386
     26 C6         -1.4324    5.5335    0.2646 C.ar      1 ACP         0.4778
     27 N6         -2.2885    6.1054   -0.5675 N.pl3     1 ACP        -0.8290
     28 N1         -1.0537    6.0229    1.4478 N.pl3     1 ACP        -0.6985
     29 C2         -0.1096    5.3242    2.2908 C.ar      1 ACP         0.6179
     30 N3          0.4468    4.1904    1.9960 N.ar      1 ACP        -0.5105
     31 C4          0.0631    3.6855    0.7877 C.ar      1 ACP         0.2753
     32 HOG2        8.8595    0.7646   -2.8599 H         1 ACP         0.4487
     33 HOG3        7.9062    3.4425   -2.4414 H         1 ACP         0.4487
     34 H3B1        5.0296    2.2276   -4.6858 H         1 ACP         0.1088
     35 H3B2        6.5399    1.9523   -5.5491 H         1 ACP         0.1088
     36 H5'1        2.5581    0.5234   -2.5967 H         1 ACP         0.0327
     37 H5'2        1.1975   -0.4371   -1.9608 H         1 ACP         0.0327
     38 H4'         3.8046   -0.1390   -0.4011 H         1 ACP         0.1275
     39 H3'         1.6787   -1.7627    0.2719 H         1 ACP         0.0637
     40 HO3'        2.2231   -1.2979    2.3952 H         1 ACP         0.4127
     41 H2'         0.0002   -0.0084   -0.0014 H         1 ACP         0.0692
     42 HO2'       -0.6132    0.5577    2.1063 H         1 ACP         0.4431
     43 H1'         1.7718    1.9211    1.6015 H         1 ACP         0.1199
     44 H8         -0.2991    1.7413   -1.9611 H         1 ACP         0.2941
     45 HN61       -2.5167    5.6603   -1.4447 H         1 ACP         0.4754
     46 HN62       -2.7159    6.9882   -0.3270 H         1 ACP         0.4754
     47 H2          0.1059    5.8491    3.2340 H         1 ACP         0.0886
     48 H48        -1.4532    6.9099    1.7401 H         1 ACP         0.4707
@<TRIPOS>BOND
     1    1    2 2
     2    1    3 1
     3    1    4 1
     4    1    8 1
     5    3   32 1
     6    4   33 1
     7    5    6 2
     8    5    7 1
     9    5    8 1
    10    5   12 1
    11    8   34 1
    12    8   35 1
    13    9   10 2
    14    9   11 1
    15    9   12 1
    16    9   13 1
    17   13   14 1
    18   14   15 1
    19   14   36 1
    20   14   37 1
    21   15   16 1
    22   15   17 1
    23   15   38 1
    24   16   21 1
    25   17   18 1
    26   17   19 1
    27   17   39 1
    28   18   40 1
    29   19   20 1
    30   19   21 1
    31   19   41 1
    32   20   42 1
    33   21   22 1
    34   21   43 1
    35   22   23 ar
    36   22   31 ar
    37   23   24 ar
    38   23   44 1
    39   24   25 ar
    40   25   26 ar
    41   25   31 ar
    42   26   27 1
    43   26   28 ar
    44   27   45 1
    45   27   46 1
    46   28   29 ar
    47   28   48 1
    48   29   30 ar
    49   29   47 1
    50   30   31 ar
@<TRIPOS>SUBSTRUCTURE
     1 ACP         1 GROUP 0 A     ****
@<TRIPOS>MOLECULE
[[5-(6-amino-1,8-dihydropurine-6,8-diylium-7-id-9-yl)-3,4-dihydroxy-tetrahydrofuran-2-yl]methoxy-oxido-phosphoryl]oxy-(phosphonomethyl)phosphinate
   48    50     1     0     0
SMALL
USER_CHARGES

@<TRIPOS>ATOM
      1 PG          5.9554    1.5400   -3.9406 P.3       1 ACP         1.6558
      2 O1G         5.6851    2.1469   -2.5968 O.2       1 ACP        -0.9020
      3 O2G         7.0322    2.3260   -4.8532 O.3       1 ACP        -0.8036
      4 O3G         4.6696    1.3982   -4.9082 O.3       1 ACP        -0.8036
      5 PB          5.7038   -1.5526   -3.1025 P.3       1 ACP         1.4945
      6 O1B         5.4857   -1.1983   -1.6497 O.co2     1 ACP        -0.8481
      7 O2B         6.3987   -2.8255   -3.5273 O.co2     1 ACP        -0.8481
      8 C3B         6.6128   -0.1422   -3.8804 C.3       1 ACP        -0.6636
      9 PA          2.8590   -2.1285   -3.7205 P.3       1 ACP         1.6023
     10 O1A         3.0780   -3.6257   -3.7547 O.co2     1 ACP        -0.8673
     11 O2A         1.8554   -1.4750   -4.6455 O.co2     1 ACP        -0.8673
     12 O3A         4.3020   -1.3896   -3.9195 O.3       1 ACP        -0.8150
     13 O5'         2.5238   -1.6632   -2.1888 O.3       1 ACP        -0.5522
     14 C5'         2.2816   -0.2918   -1.9206 C.3       1 ACP         0.2181
     15 C4'         2.7248    0.0226   -0.4980 C.3       1 ACP         0.0915
     16 O4'         2.4697    1.4219   -0.2462 O.3       1 ACP        -0.3675
     17 C3'         1.9404   -0.7419    0.5596 C.3       1 ACP         0.0748
     18 O3'         2.7418   -0.8086    1.7389 O.3       1 ACP        -0.5646
     19 C2'         0.7477    0.1630    0.7858 C.3       1 ACP         0.0804
     20 O2'         0.1373   -0.0577    2.0407 O.3       1 ACP        -0.5882
     21 C1'         1.3733    1.5427    0.6747 C.3       1 ACP         0.3809
     22 N9          0.4520    2.5240    0.1767 N.pl3     1 ACP        -0.4412
     23 C8          0.1798    2.8712   -1.2933 C.ar      1 ACP         0.1936
     24 N7         -0.7494    3.8400   -1.3610 N.2       1 ACP        -0.2746
     25 C5         -1.0173    4.0603   -0.0358 C.ar      1 ACP        -0.1386
     26 C6         -2.0105    5.0717    0.4241 C.ar      1 ACP         0.4778
     27 N6         -2.6723    5.7982   -0.4628 N.pl3     1 ACP        -0.8290
     28 N1         -2.1445    5.1522    1.7502 N.pl3     1 ACP        -0.6985
     29 C2         -1.3755    4.3143    2.6426 C.ar      1 ACP         0.6179
     30 N3         -0.5075    3.4292    2.2616 N.ar      1 ACP        -0.5105
     31 C4         -0.3667    3.3425    0.9070 C.ar      1 ACP         0.2753
     32 HOG2        6.8520    3.2567   -5.1052 H         1 ACP         0.4487
     33 HOG3        4.1783    2.2066   -5.1672 H         1 ACP         0.4487
     34 H3B1        6.8156   -0.4554   -4.9108 H         1 ACP         0.1088
     35 H3B2        7.5794   -0.0896   -3.3665 H         1 ACP         0.1088
     36 H5'1        2.8430    0.3138   -2.6391 H         1 ACP         0.0327
     37 H5'2        1.2126   -0.0907   -2.0421 H         1 ACP         0.0327
     38 H4'         3.8046   -0.1390   -0.4011 H         1 ACP         0.1275
     39 H3'         1.6787   -1.7627    0.2719 H         1 ACP         0.0637
     40 HO3'        3.5553   -1.2733    1.4913 H         1 ACP         0.4127
     41 H2'         0.0002   -0.0084   -0.0014 H         1 ACP         0.0692
     42 HO2'       -0.1554   -0.9852    2.0577 H         1 ACP         0.4431
     43 H1'         1.7718    1.9211    1.6015 H         1 ACP         0.1199
     44 H8          0.6089    2.4651   -2.2147 H         1 ACP         0.2941
     45 HN61       -2.5055    5.6680   -1.4503 H         1 ACP         0.4754
     46 HN62       -3.3462    6.4841   -0.1542 H         1 ACP         0.4754
     47 H2         -1.5932    4.4937    3.7066 H         1 ACP         0.0886
     48 H48        -2.8098    5.8270    2.1160 H         1 ACP         0.4707
@<TRIPOS>BOND
     1    1    2 2
     2    1    3 1
     3    1    4 1
     4    1    8 1
     5    3   32 1
     6    4   33 1
     7    5    6 2
     8    5    7 1
     9    5    8 1
    10    5   12 1
    11    8   34 1
    12    8   35 1
    13    9   10 2
    14    9   11 1
    15    9   12 1
    16    9   13 1
    17   13   14 1
    18   14   15 1
    19   14   36 1
    20   14   37 1
    21   15   16 1
    22   15   17 1
    23   15   38 1
    24   16   21 1
    25   17   18 1
    26   17   19 1
    27   17   39 1
    28   18   40 1
    29   19   20 1
    30   19   21 1
    31   19   41 1
    32   20   42 1
    33   21   22 1
    34   21   43 1
    35   22   23 ar
    36   22   31 ar
    37   23   24 ar
    38   23   44 1
    39   24   25 ar
    40   25   26 ar
    41   25   31 ar
    42   26   27 1
    43   26   28 ar
    44   27   45 1
    45   27   46 1
    46   28   29 ar
    47   28   48 1
    48   29   30 ar
    49   29   47 1
    50   30   31 ar
@<TRIPOS>SUBSTRUCTURE
     1 ACP         1 GROUP 0 A     ****
@<TRIPOS>MOLECULE
[[5-(6-amino-1,8-dihydropurine-6,8-diylium-7-id-9-yl)-3,4-dihydroxy-tetrahydrofuran-2-yl]methoxy-oxido-phosphoryl]oxy-(phosphonomethyl)phosphinate
   48    50     1     0     0
SMALL
USER_CHARGES

@<TRIPOS>ATOM
      1 PG          2.1780   -1.0283   -7.4243 P.3       1 ACP         1.6558
      2 O1G         2.1880   -2.2852   -8.2413 O.2       1 ACP        -0.9020
      3 O2G         1.2400   -1.0628   -6.1094 O.3       1 ACP        -0.8036
      4 O3G         1.6909    0.3005   -8.2032 O.3       1 ACP        -0.8036
      5 PB          4.7771   -1.6298   -5.6319 P.3       1 ACP         1.4945
      6 O1B         6.0550   -0.8909   -5.3086 O.co2     1 ACP        -0.8481
      7 O2B         4.7763   -3.0225   -6.2183 O.co2     1 ACP        -0.8481
      8 C3B         3.7933   -0.5524   -6.7686 C.3       1 ACP        -0.6636
      9 PA          3.9659   -2.1095   -2.8180 P.3       1 ACP         1.6023
     10 O1A         5.0701   -1.3086   -2.1624 O.co2     1 ACP        -0.8673
     11 O2A         4.0235   -3.6214   -2.8472 O.co2     1 ACP        -0.8673
     12 O3A         3.7737   -1.5707   -4.3478 O.3       1 ACP        -0.8150
     13 O5'         2.5238   -1.6632   -2.1888 O.3       1 ACP        -0.5522
     14 C5'         2.2816   -0.2918   -1.9206 C.3       1 ACP         0.2181
     15 C4'         2.7248    0.0226   -0.4980 C.3       1 ACP         0.0915
     16 O4'         2.4697    1.4219   -0.2462 O.3       1 ACP        -0.3675
     17 C3'         1.9404   -0.7419    0.5596 C.3       1 ACP         0.0748
     18 O3'         2.7418   -0.8086    1.7389 O.3       1 ACP        -0.5646
     19 C2'         0.7477    0.1630    0.7858 C.3       1 ACP         0.0804
     20 O2'         0.1373   -0.0577    2.0407 O.3       1 ACP        -0.5882
     21 C1'         1.3733    1.5427    0.6747 C.3       1 ACP         0.3809
     22 N9          0.4520    2.5240    0.1767 N.pl3     1 ACP        -0.4412
     23 C8          0.1798    2.8712   -1.2933 C.ar      1 ACP         0.1936
     24 N7         -0.7494    3.8400   -1.3610 N.2       1 ACP        -0.2746
     25 C5         -1.0173    4.0603   -0.0358 C.ar      1 ACP        -0.1386
     26 C6         -2.0105    5.0717    0.4241 C.ar      1 ACP         0.4778
     27 N6         -2.6723    5.7982   -0.4628 N.pl3     1 ACP        -0.8290
     28 N1         -2.1445    5.1522    1.7502 N.pl3     1 ACP        -0.6985
     29 C2         -1.3755    4.3143    2.6426 C.ar      1 ACP         0.6179
     30 N3         -0.5075    3.4292    2.2616 N.ar      1 ACP        -0.5105
     31 C4         -0.3667    3.3425    0.9070 C.ar      1 ACP         0.2753
     32 HOG2        0.2777   -1.2196   -6.2162 H         1 ACP         0.4487
     33 HOG3        0.7881    0.3230   -8.5858 H         1 ACP         0.4487
     34 H3B1        4.4498   -0.3482   -7.6220 H         1 ACP         0.1088
     35 H3B2        3.6558    0.3962   -6.2372 H         1 ACP         0.1088
     36 H5'1        2.8430    0.3138   -2.6391 H         1 ACP         0.0327
     37 H5'2        1.2126   -0.0907   -2.0421 H         1 ACP         0.0327
     38 H4'         3.8046   -0.1390   -0.4011 H         1 ACP         0.1275
     39 H3'         1.6787   -1.7627    0.2719 H         1 ACP         0.0637
     40 HO3'        2.2231   -1.2979    2.3952 H         1 ACP         0.4127
     41 H2'         0.0002   -0.0084   -0.0014 H         1 ACP         0.0692
     42 HO2'       -0.6132    0.5577    2.1063 H         1 ACP         0.4431
     43 H1'         1.7718    1.9211    1.6015 H         1 ACP         0.1199
     44 H8          0.6089    2.4651   -2.2147 H         1 ACP         0.2941
     45 HN61       -2.5055    5.6680   -1.4503 H         1 ACP         0.4754
     46 HN62       -3.3462    6.4841   -0.1542 H         1 ACP         0.4754
     47 H2         -1.5932    4.4937    3.7066 H         1 ACP         0.0886
     48 H48        -2.8098    5.8270    2.1160 H         1 ACP         0.4707
@<TRIPOS>BOND
     1    1    2 2
     2    1    3 1
     3    1    4 1
     4    1    8 1
     5    3   32 1
     6    4   33 1
     7    5    6 2
     8    5    7 1
     9    5    8 1
    10    5   12 1
    11    8   34 1
    12    8   35 1
    13    9   10 2
    14    9   11 1
    15    9   12 1
    16    9   13 1
    17   13   14 1
    18   14   15 1
    19   14   36 1
    20   14   37 1
    21   15   16 1
    22   15   17 1
    23   15   38 1
    24   16   21 1
    25   17   18 1
    26   17   19 1
    27   17   39 1
    28   18   40 1
    29   19   20 1
    30   19   21 1
    31   19   41 1
    32   20   42 1
    33   21   22 1
    34   21   43 1
    35   22   23 ar
    36   22   31 ar
    37   23   24 ar
    38   23   44 1
    39   24   25 ar
    40   25   26 ar
    41   25   31 ar
    42   26   27 1
    43   26   28 ar
    44   27   45 1
    45   27   46 1
    46   28   29 ar
    47   28   48 1
    48   29   30 ar
    49   29   47 1
    50   30   31 ar
@<TRIPOS>SUBSTRUCTURE
     1 ACP         1 GROUP 0 A     ****
@<TRIPOS>MOLECULE
[[5-(6-amino-1,8-dihydropurine-6,8-diylium-7-id-9-yl)-3,4-dihydroxy-tetrahydrofuran-2-yl]methoxy-oxido-phosphoryl]oxy-(phosphonomethyl)phosphinate
   48    50     1     0     0
SMALL
USER_CHARGES

@<TRIPOS>ATOM
      1 PG          5.1603   -1.2880   -7.3997 P.3       1 ACP         1.6558
      2 O1G         6.1628   -0.9546   -6.3363 O.2       1 ACP        -0.9020
      3 O2G         5.1898   -2.8149   -7.9271 O.3       1 ACP        -0.8036
      4 O3G         5.2720   -0.4162   -8.7552 O.3       1 ACP        -0.8036
      5 PB          2.6691   -1.9587   -5.4829 P.3       1 ACP         1.4945
      6 O1B         2.7589   -3.4355   -5.7908 O.co2     1 ACP        -0.8481
      7 O2B         1.3564   -1.2770   -5.1737 O.co2     1 ACP        -0.8481
      8 C3B         3.4390   -1.0551   -6.9012 C.3       1 ACP        -0.6636
      9 PA          3.9659   -2.1095   -2.8180 P.3       1 ACP         1.6023
     10 O1A         5.0701   -1.3086   -2.1624 O.co2     1 ACP        -0.8673
     11 O2A         4.0235   -3.6214   -2.8472 O.co2     1 ACP        -0.8673
     12 O3A         3.7737   -1.5707   -4.3478 O.3       1 ACP        -0.8150
     13 O5'         2.5238   -1.6632   -2.1888 O.3       1 ACP        -0.5522
     14 C5'         2.2816   -0.2918   -1.9206 C.3       1 ACP         0.2181
     15 C4'         2.7248    0.0226   -0.4980 C.3       1 ACP         0.0915
     16 O4'         2.4697    1.4219   -0.2462 O.3       1 ACP        -0.3675
     17 C3'         1.9404   -0.7419    0.5596 C.3       1 ACP         0.0748
     18 O3'         2.7418   -0.8086    1.7389 O.3       1 ACP        -0.5646
     19 C2'         0.7477    0.1630    0.7858 C.3       1 ACP         0.0804
     20 O2'         0.1373   -0.0577    2.0407 O.3       1 ACP        -0.5882
     21 C1'         1.3733    1.5427    0.6747 C.3       1 ACP         0.3809
     22 N9          0.4520    2.5240    0.1767 N.pl3     1 ACP        -0.4412
     23 C8          0.1798    2.8712   -1.2933 C.ar      1 ACP         0.1936
     24 N7         -0.7494    3.8400   -1.3610 N.2       1 ACP        -0.2746
     25 C5         -1.0173    4.0603   -0.0358 C.ar      1 ACP        -0.1386
     26 C6         -2.0105    5.0717    0.4241 C.ar      1 ACP         0.4778
     27 N6         -2.6723    5.7982   -0.4628 N.pl3     1 ACP        -0.8290
     28 N1         -2.1445    5.1522    1.7502 N.pl3     1 ACP        -0.6985
     29 C2         -1.3755    4.3143    2.6426 C.ar      1 ACP         0.6179
     30 N3         -0.5075    3.4292    2.2616 N.ar      1 ACP        -0.5105
     31 C4         -0.3667    3.3425    0.9070 C.ar      1 ACP         0.2753
     32 HOG2        6.0119   -3.1607   -8.3352 H         1 ACP         0.4487
     33 HOG3        6.1051   -0.4462   -9.2721 H         1 ACP         0.4487
     34 H3B1        3.2989    0.0095   -6.6826 H         1 ACP         0.1088
     35 H3B2        2.8190   -1.2860   -7.7749 H         1 ACP         0.1088
     36 H5'1        2.8430    0.3138   -2.6391 H         1 ACP         0.0327
     37 H5'2        1.2126   -0.0907   -2.0421 H         1 ACP         0.0327
     38 H4'         3.8046   -0.1390   -0.4011 H         1 ACP         0.1275
     39 H3'         1.6787   -1.7627    0.2719 H         1 ACP         0.0637
     40 HO3'        2.2231   -1.2979    2.3952 H         1 ACP         0.4127
     41 H2'         0.0002   -0.0084   -0.0014 H         1 ACP         0.0692
     42 HO2'       -0.6132    0.5577    2.1063 H         1 ACP         0.4431
     43 H1'         1.7718    1.9211    1.6015 H         1 ACP         0.1199
     44 H8          0.6089    2.4651   -2.2147 H         1 ACP         0.2941
     45 HN61       -2.5055    5.6680   -1.4503 H         1 ACP         0.4754
     46 HN62       -3.3462    6.4841   -0.1542 H         1 ACP         0.4754
     47 H2         -1.5932    4.4937    3.7066 H         1 ACP         0.0886
     48 H48        -2.8098    5.8270    2.1160 H         1 ACP         0.4707
@<TRIPOS>BOND
     1    1    2 2
     2    1    3 1
     3    1    4 1
     4    1    8 1
     5    3   32 1
     6    4   33 1
     7    5    6 2
     8    5    7 1
     9    5    8 1
    10    5   12 1
    11    8   34 1
    12    8   35 1
    13    9   10 2
    14    9   11 1
    15    9   12 1
    16    9   13 1
    17   13   14 1
    18   14   15 1
    19   14   36 1
    20   14   37 1
    21   15   16 1
    22   15   17 1
    23   15   38 1
    24   16   21 1
    25   17   18 1
    26   17   19 1
    27   17   39 1
    28   18   40 1
    29   19   20 1
    30   19   21 1
    31   19   41 1
    32   20   42 1
    33   21   22 1
    34   21   43 1
    35   22   23 ar
    36   22   31 ar
    37   23   24 ar
    38   23   44 1
    39   24   25 ar
    40   25   26 ar
    41   25   31 ar
    42   26   27 1
    43   26   28 ar
    44   27   45 1
    45   27   46 1
    46   28   29 ar
    47   28   48 1
    48   29   30 ar
    49   29   47 1
    50   30   31 ar
@<TRIPOS>SUBSTRUCTURE
     1 ACP         1 GROUP 0 A     ****
@<TRIPOS>MOLECULE
[[5-(6-amino-1,8-dihydropurine-6,8-diylium-7-id-9-yl)-3,4-dihydroxy-tetrahydrofuran-2-yl]methoxy-oxido-phosphoryl]oxy-(phosphonomethyl)phosphinate
   48    50     1     0     0
SMALL
USER_CHARGES

@<TRIPOS>ATOM
      1 PG         -0.7902   -5.1882   -2.1651 P.3       1 ACP         1.6558
      2 O1G         0.3251   -4.8200   -1.2335 O.2       1 ACP        -0.9020
      3 O2G        -2.2233   -5.4448   -1.4648 O.3       1 ACP        -0.8036
      4 O3G        -0.5501   -6.5254   -3.0391 O.3       1 ACP        -0.8036
      5 PB          0.0815   -3.3628   -4.6628 P.3       1 ACP         1.4945
      6 O1B        -0.5984   -2.3252   -5.5256 O.co2     1 ACP        -0.8481
      7 O2B         0.7387   -4.5924   -5.2457 O.co2     1 ACP        -0.8481
      8 C3B        -1.1588   -3.9386   -3.4175 C.3       1 ACP        -0.6636
      9 PA          2.6171   -2.0488   -3.8563 P.3       1 ACP         1.6023
     10 O1A         2.5471   -0.8889   -4.8260 O.co2     1 ACP        -0.8673
     11 O2A         3.5415   -3.2178   -4.1184 O.co2     1 ACP        -0.8673
     12 O3A         1.1061   -2.6262   -3.6299 O.3       1 ACP        -0.8150
     13 O5'         2.9203   -1.4822   -2.3523 O.3       1 ACP        -0.5522
     14 C5'         2.2816   -0.2918   -1.9206 C.3       1 ACP         0.2181
     15 C4'         2.7248    0.0226   -0.4980 C.3       1 ACP         0.0915
     16 O4'         2.4697    1.4219   -0.2462 O.3       1 ACP        -0.3675
     17 C3'         1.9404   -0.7419    0.5596 C.3       1 ACP         0.0748
     18 O3'         2.7418   -0.8086    1.7389 O.3       1 ACP        -0.5646
     19 C2'         0.7477    0.1630    0.7858 C.3       1 ACP         0.0804
     20 O2'         0.1373   -0.0577    2.0407 O.3       1 ACP        -0.5882
     21 C1'         1.3733    1.5427    0.6747 C.3       1 ACP         0.3809
     22 N9          0.4520    2.5240    0.1767 N.pl3     1 ACP        -0.4412
     23 C8         -0.3054    2.4845   -1.1576 C.ar      1 ACP         0.1936
     24 N7         -1.0755    3.5806   -1.2691 N.2       1 ACP        -0.2746
     25 C5         -0.8043    4.2306   -0.0942 C.ar      1 ACP        -0.1386
     26 C6         -1.4324    5.5335    0.2646 C.ar      1 ACP         0.4778
     27 N6         -2.2885    6.1054   -0.5675 N.pl3     1 ACP        -0.8290
     28 N1         -1.0537    6.0229    1.4478 N.pl3     1 ACP        -0.6985
     29 C2         -0.1096    5.3242    2.2908 C.ar      1 ACP         0.6179
     30 N3          0.4468    4.1904    1.9960 N.ar      1 ACP        -0.5105
     31 C4          0.0631    3.6855    0.7877 C.ar      1 ACP         0.2753
     32 HOG2       -2.3035   -6.1550   -0.7931 H         1 ACP         0.4487
     33 HOG3       -0.4097   -7.3778   -2.5746 H         1 ACP         0.4487
     34 H3B1       -2.0159   -4.2960   -3.9994 H         1 ACP         0.1088
     35 H3B2       -1.4874   -3.0391   -2.8846 H         1 ACP         0.1088
     36 H5'1        2.5581    0.5234   -2.5967 H         1 ACP         0.0327
     37 H5'2        1.1975   -0.4371   -1.9608 H         1 ACP         0.0327
     38 H4'         3.8046   -0.1390   -0.4011 H         1 ACP         0.1275
     39 H3'         1.6787   -1.7627    0.2719 H         1 ACP         0.0637
     40 HO3'        3.5553   -1.2733    1.4913 H         1 ACP         0.4127
     41 H2'         0.0002   -0.0084   -0.0014 H         1 ACP         0.0692
     42 HO2'       -0.6132    0.5577    2.1063 H         1 ACP         0.4431
     43 H1'         1.7718    1.9211    1.6015 H         1 ACP         0.1199
     44 H8         -0.2991    1.7413   -1.9611 H         1 ACP         0.2941
     45 HN61       -2.5167    5.6603   -1.4447 H         1 ACP         0.4754
     46 HN62       -2.7159    6.9882   -0.3270 H         1 ACP         0.4754
     47 H2          0.1059    5.8491    3.2340 H         1 ACP         0.0886
     48 H48        -1.4532    6.9099    1.7401 H         1 ACP         0.4707
@<TRIPOS>BOND
     1    1    2 2
     2    1    3 1
     3    1    4 1
     4    1    8 1
     5    3   32 1
     6    4   33 1
     7    5    6 2
     8    5    7 1
     9    5    8 1
    10    5   12 1
    11    8   34 1
    12    8   35 1
    13    9   10 2
    14    9   11 1
    15    9   12 1
    16    9   13 1
    17   13   14 1
    18   14   15 1
    19   14   36 1
    20   14   37 1
    21   15   16 1
    22   15   17 1
    23   15   38 1
    24   16   21 1
    25   17   18 1
    26   17   19 1
    27   17   39 1
    28   18   40 1
    29   19   20 1
    30   19   21 1
    31   19   41 1
    32   20   42 1
    33   21   22 1
    34   21   43 1
    35   22   23 ar
    36   22   31 ar
    37   23   24 ar
    38   23   44 1
    39   24   25 ar
    40   25   26 ar
    41   25   31 ar
    42   26   27 1
    43   26   28 ar
    44   27   45 1
    45   27   46 1
    46   28   29 ar
    47   28   48 1
    48   29   30 ar
    49   29   47 1
    50   30   31 ar
@<TRIPOS>SUBSTRUCTURE
     1 ACP         1 GROUP 0 A     ****
@<TRIPOS>MOLECULE
[[5-(6-amino-1,8-dihydropurine-6,8-diylium-7-id-9-yl)-3,4-dihydroxy-tetrahydrofuran-2-yl]methoxy-oxido-phosphoryl]oxy-(phosphonomethyl)phosphinate
   48    50     1     0     0
SMALL
USER_CHARGES

@<TRIPOS>ATOM
      1 PG         -2.6049   -2.9291   -2.0228 P.3       1 ACP         1.6558
      2 O1G        -2.9231   -4.3930   -2.0772 O.2       1 ACP        -0.9020
      3 O2G        -1.3909   -2.5188   -1.0388 O.3       1 ACP        -0.8036
      4 O3G        -3.8178   -1.9736   -1.5478 O.3       1 ACP        -0.8036
      5 PB         -0.6407   -2.7954   -4.5632 P.3       1 ACP         1.4945
      6 O1B        -0.5629   -1.9595   -5.8197 O.co2     1 ACP        -0.8481
      7 O2B        -0.6955   -4.3051   -4.6002 O.co2     1 ACP        -0.8481
      8 C3B        -2.1135   -2.2135   -3.6077 C.3       1 ACP        -0.6636
      9 PA          2.1358   -2.2685   -3.6578 P.3       1 ACP         1.6023
     10 O1A         2.4970   -1.2612   -4.7281 O.co2     1 ACP        -0.8673
     11 O2A         2.6457   -3.6911   -3.7347 O.co2     1 ACP        -0.8673
     12 O3A         0.5094   -2.3101   -3.5139 O.3       1 ACP        -0.8150
     13 O5'         2.5238   -1.6632   -2.1888 O.3       1 ACP        -0.5522
     14 C5'         2.2816   -0.2918   -1.9206 C.3       1 ACP         0.2181
     15 C4'         2.7248    0.0226   -0.4980 C.3       1 ACP         0.0915
     16 O4'         2.4697    1.4219   -0.2462 O.3       1 ACP        -0.3675
     17 C3'         1.9404   -0.7419    0.5596 C.3       1 ACP         0.0748
     18 O3'         2.7418   -0.8086    1.7389 O.3       1 ACP        -0.5646
     19 C2'         0.7477    0.1630    0.7858 C.3       1 ACP         0.0804
     20 O2'         0.1373   -0.0577    2.0407 O.3       1 ACP        -0.5882
     21 C1'         1.3733    1.5427    0.6747 C.3       1 ACP         0.3809
     22 N9          0.4520    2.5240    0.1767 N.pl3     1 ACP        -0.4412
     23 C8         -1.0660    2.5608    0.3999 C.ar      1 ACP         0.1936
     24 N7         -1.5852    3.6333   -0.2221 N.2       1 ACP        -0.2746
     25 C5         -0.4682    4.1996   -0.7771 C.ar      1 ACP        -0.1386
     26 C6         -0.5216    5.4476   -1.5899 C.ar      1 ACP         0.4778
     27 N6         -1.6813    6.0510   -1.7982 N.pl3     1 ACP        -0.8290
     28 N1          0.6621    5.8575   -2.0523 N.pl3     1 ACP        -0.6985
     29 C2          1.8795    5.1301   -1.7717 C.ar      1 ACP         0.6179
     30 N3          1.9458    4.0434   -1.0670 N.ar      1 ACP        -0.5105
     31 C4          0.7388    3.6199   -0.5917 C.ar      1 ACP         0.2753
     32 HOG2       -1.4633   -2.7264   -0.0829 H         1 ACP         0.4487
     33 HOG3       -4.2097   -2.1096   -0.6591 H         1 ACP         0.4487
     34 H3B1       -2.9643   -2.3085   -4.2918 H         1 ACP         0.1088
     35 H3B2       -1.9568   -1.1418   -3.4399 H         1 ACP         0.1088
     36 H5'1        2.8430    0.3138   -2.6391 H         1 ACP         0.0327
     37 H5'2        1.2126   -0.0907   -2.0421 H         1 ACP         0.0327
     38 H4'         3.8046   -0.1390   -0.4011 H         1 ACP         0.1275
     39 H3'         1.6787   -1.7627    0.2719 H         1 ACP         0.0637
     40 HO3'        2.2231   -1.2979    2.3952 H         1 ACP         0.4127
     41 H2'         0.0002   -0.0084   -0.0014 H         1 ACP         0.0692
     42 HO2'       -0.1554   -0.9852    2.0577 H         1 ACP         0.4431
     43 H1'         1.7718    1.9211    1.6015 H         1 ACP         0.1199
     44 H8         -1.7235    1.8833    0.9537 H         1 ACP         0.2941
     45 HN61       -2.5296    5.6672   -1.4072 H         1 ACP         0.4754
     46 HN62       -1.7205    6.8969   -2.3483 H         1 ACP         0.4754
     47 H2          2.7750    5.5878   -2.2190 H         1 ACP         0.0886
     48 H48         0.6808    6.7046   -2.6128 H         1 ACP         0.4707
@<TRIPOS>BOND
     1    1    2 2
     2    1    3 1
     3    1    4 1
     4    1    8 1
     5    3   32 1
     6    4   33 1
     7    5    6 2
     8    5    7 1
     9    5    8 1
    10    5   12 1
    11    8   34 1
    12    8   35 1
    13    9   10 2
    14    9   11 1
    15    9   12 1
    16    9   13 1
    17   13   14 1
    18   14   15 1
    19   14   36 1
    20   14   37 1
    21   15   16 1
    22   15   17 1
    23   15   38 1
    24   16   21 1
    25   17   18 1
    26   17   19 1
    27   17   39 1
    28   18   40 1
    29   19   20 1
    30   19   21 1
    31   19   41 1
    32   20   42 1
    33   21   22 1
    34   21   43 1
    35   22   23 ar
    36   22   31 ar
    37   23   24 ar
    38   23   44 1
    39   24   25 ar
    40   25   26 ar
    41   25   31 ar
    42   26   27 1
    43   26   28 ar
    44   27   45 1
    45   27   46 1
    46   28   29 ar
    47   28   48 1
    48   29   30 ar
    49   29   47 1
    50   30   31 ar
@<TRIPOS>SUBSTRUCTURE
     1 ACP         1 GROUP 0 A     ****
@<TRIPOS>MOLECULE
[[5-(6-amino-1,8-dihydropurine-6,8-diylium-7-id-9-yl)-3,4-dihydroxy-tetrahydrofuran-2-yl]methoxy-oxido-phosphoryl]oxy-(phosphonomethyl)phosphinate
   48    50     1     0     0
SMALL
USER_CHARGES

@<TRIPOS>ATOM
      1 PG          4.0225    1.0764   -7.5768 P.3       1 ACP         1.6558
      2 O1G         2.7231    0.3626   -7.7989 O.2       1 ACP        -0.9020
      3 O2G         4.0635    2.6137   -8.0721 O.3       1 ACP        -0.8036
      4 O3G         5.3091    0.4124   -8.2934 O.3       1 ACP        -0.8036
      5 PB          4.8276   -0.3014   -4.7869 P.3       1 ACP         1.4945
      6 O1B         5.2281    0.1967   -3.4175 O.co2     1 ACP        -0.8481
      7 O2B         5.6892   -1.2538   -5.5831 O.co2     1 ACP        -0.8481
      8 C3B         4.5267    1.1856   -5.8449 C.3       1 ACP        -0.6636
      9 PA          2.6171   -2.0488   -3.8563 P.3       1 ACP         1.6023
     10 O1A         3.4076   -3.3191   -4.0840 O.co2     1 ACP        -0.8673
     11 O2A         1.1208   -2.0213   -4.0811 O.co2     1 ACP        -0.8673
     12 O3A         3.2937   -0.8528   -4.7390 O.3       1 ACP        -0.8150
     13 O5'         2.9203   -1.4822   -2.3523 O.3       1 ACP        -0.5522
     14 C5'         2.2816   -0.2918   -1.9206 C.3       1 ACP         0.2181
     15 C4'         2.7248    0.0226   -0.4980 C.3       1 ACP         0.0915
     16 O4'         2.4697    1.4219   -0.2462 O.3       1 ACP        -0.3675
     17 C3'         1.9404   -0.7419    0.5596 C.3       1 ACP         0.0748
     18 O3'         2.7418   -0.8086    1.7389 O.3       1 ACP        -0.5646
     19 C2'         0.7477    0.1630    0.7858 C.3       1 ACP         0.0804
     20 O2'         0.1373   -0.0577    2.0407 O.3       1 ACP        -0.5882
     21 C1'         1.3733    1.5427    0.6747 C.3       1 ACP         0.3809
     22 N9          0.4520    2.5240    0.1767 N.pl3     1 ACP        -0.4412
     23 C8         -0.3054    2.4845   -1.1576 C.ar      1 ACP         0.1936
     24 N7         -1.0755    3.5806   -1.2691 N.2       1 ACP        -0.2746
     25 C5         -0.8043    4.2306   -0.0942 C.ar      1 ACP        -0.1386
     26 C6         -1.4324    5.5335    0.2646 C.ar      1 ACP         0.4778
     27 N6         -2.2885    6.1054   -0.5675 N.pl3     1 ACP        -0.8290
     28 N1         -1.0537    6.0229    1.4478 N.pl3     1 ACP        -0.6985
     29 C2         -0.1096    5.3242    2.2908 C.ar      1 ACP         0.6179
     30 N3          0.4468    4.1904    1.9960 N.ar      1 ACP        -0.5105
     31 C4          0.0631    3.6855    0.7877 C.ar      1 ACP         0.2753
     32 HOG2        3.9050    2.8119   -9.0195 H         1 ACP         0.4487
     33 HOG3        5.3145    0.3207   -9.2699 H         1 ACP         0.4487
     34 H3B1        5.4549    1.7668   -5.8063 H         1 ACP         0.1088
     35 H3B2        3.7606    1.7723   -5.3252 H         1 ACP         0.1088
     36 H5'1        2.5581    0.5234   -2.5967 H         1 ACP         0.0327
     37 H5'2        1.1975   -0.4371   -1.9608 H         1 ACP         0.0327
     38 H4'         3.8046   -0.1390   -0.4011 H         1 ACP         0.1275
     39 H3'         1.6787   -1.7627    0.2719 H         1 ACP         0.0637
     40 HO3'        2.2231   -1.2979    2.3952 H         1 ACP         0.4127
     41 H2'         0.0002   -0.0084   -0.0014 H         1 ACP         0.0692
     42 HO2'       -0.6132    0.5577    2.1063 H         1 ACP         0.4431
     43 H1'         1.7718    1.9211    1.6015 H         1 ACP         0.1199
     44 H8         -0.2991    1.7413   -1.9611 H         1 ACP         0.2941
     45 HN61       -2.5167    5.6603   -1.4447 H         1 ACP         0.4754
     46 HN62       -2.7159    6.9882   -0.3270 H         1 ACP         0.4754
     47 H2          0.1059    5.8491    3.2340 H         1 ACP         0.0886
     48 H48        -1.4532    6.9099    1.7401 H         1 ACP         0.4707
@<TRIPOS>BOND
     1    1    2 2
     2    1    3 1
     3    1    4 1
     4    1    8 1
     5    3   32 1
     6    4   33 1
     7    5    6 2
     8    5    7 1
     9    5    8 1
    10    5   12 1
    11    8   34 1
    12    8   35 1
    13    9   10 2
    14    9   11 1
    15    9   12 1
    16    9   13 1
    17   13   14 1
    18   14   15 1
    19   14   36 1
    20   14   37 1
    21   15   16 1
    22   15   17 1
    23   15   38 1
    24   16   21 1
    25   17   18 1
    26   17   19 1
    27   17   39 1
    28   18   40 1
    29   19   20 1
    30   19   21 1
    31   19   41 1
    32   20   42 1
    33   21   22 1
    34   21   43 1
    35   22   23 ar
    36   22   31 ar
    37   23   24 ar
    38   23   44 1
    39   24   25 ar
    40   25   26 ar
    41   25   31 ar
    42   26   27 1
    43   26   28 ar
    44   27   45 1
    45   27   46 1
    46   28   29 ar
    47   28   48 1
    48   29   30 ar
    49   29   47 1
    50   30   31 ar
@<TRIPOS>SUBSTRUCTURE
     1 ACP         1 GROUP 0 A     ****
@<TRIPOS>MOLECULE
[[5-(6-amino-1,8-dihydropurine-6,8-diylium-7-id-9-yl)-3,4-dihydroxy-tetrahydrofuran-2-yl]methoxy-oxido-phosphoryl]oxy-(phosphonomethyl)phosphinate
   48    50     1     0     0
SMALL
USER_CHARGES

@<TRIPOS>ATOM
      1 PG         -0.5441    1.0489    5.2147 P.3       1 ACP         1.6558
      2 O1G         0.5297    0.3812    4.4095 O.2       1 ACP        -0.9020
      3 O2G        -1.0062    2.5034    4.6843 O.3       1 ACP        -0.8036
      4 O3G        -0.1852    1.3080    6.7683 O.3       1 ACP        -0.8036
      5 PB         -2.2182   -1.5775    6.0080 P.3       1 ACP         1.4945
      6 O1B        -3.6637   -2.0047    5.9002 O.co2     1 ACP        -0.8481
      7 O2B        -1.4738   -1.5727    7.3230 O.co2     1 ACP        -0.8481
      8 C3B        -2.0956    0.1264    5.2989 C.3       1 ACP        -0.6636
      9 PA         -0.7248   -3.8665    4.8519 P.3       1 ACP         1.6023
     10 O1A        -1.8767   -4.8475    4.8179 O.co2     1 ACP        -0.8673
     11 O2A         0.3435   -3.9689    5.9188 O.co2     1 ACP        -0.8673
     12 O3A        -1.3354   -2.3518    4.8765 O.3       1 ACP        -0.8150
     13 O5'         0.0100   -3.8402    3.3910 O.3       1 ACP        -0.5522
     14 C5'        -0.7840   -3.8935    2.2172 C.3       1 ACP         0.2181
     15 C4'        -0.0724   -3.1466    1.1027 C.3       1 ACP         0.0915
     16 O4'        -0.8674   -3.1929   -0.0945 O.3       1 ACP        -0.3675
     17 C3'         0.1338   -1.6715    1.4027 C.3       1 ACP         0.0748
     18 O3'         1.2893   -1.4445    2.1808 O.3       1 ACP        -0.5646
     19 C2'         0.2158   -1.0724    0.0128 C.3       1 ACP         0.0804
     20 O2'         1.5141   -1.2448   -0.5513 O.3       1 ACP        -0.5882
     21 C1'        -0.7897   -1.9176   -0.7583 C.3       1 ACP         0.3809
     22 N9         -2.1040   -1.3333   -0.7704 N.pl3     1 ACP        -0.4412
     23 C8         -3.2124   -1.5345    0.2719 C.ar      1 ACP         0.1936
     24 N7         -4.2964   -0.8234   -0.0828 N.2       1 ACP        -0.2746
     25 C5         -3.8754   -0.2386   -1.2478 C.ar      1 ACP        -0.1386
     26 C6         -4.7432    0.6719   -2.0470 C.ar      1 ACP         0.4778
     27 N6         -5.9725    0.9415   -1.6366 N.pl3     1 ACP        -0.8290
     28 N1         -4.1703    1.1517   -3.1536 N.pl3     1 ACP        -0.6985
     29 C2         -2.8174    0.7994   -3.5215 C.ar      1 ACP         0.6179
     30 N3         -2.0475    0.0097   -2.8393 N.ar      1 ACP        -0.5105
     31 C4         -2.6278   -0.4836   -1.7071 C.ar      1 ACP         0.2753
     32 HOG2       -0.3419    3.2231    4.6320 H         1 ACP         0.4487
     33 HOG3        0.5873    1.8701    6.9902 H         1 ACP         0.4487
     34 H3B1       -2.8111    0.7330    5.8655 H         1 ACP         0.1088
     35 H3B2       -2.4797    0.0526    4.2751 H         1 ACP         0.1088
     36 H5'1       -0.9357   -4.9414    1.9397 H         1 ACP         0.0327
     37 H5'2       -1.7557   -3.4349    2.4259 H         1 ACP         0.0327
     38 H4'         0.8883   -3.6447    0.8783 H         1 ACP         0.1275
     39 H3'        -0.7368   -1.2359    1.9871 H         1 ACP         0.0637
     40 HO3'        1.1625   -1.9325    3.0084 H         1 ACP         0.4127
     41 H2'        -0.0343   -0.0280    0.0196 H         1 ACP         0.0692
     42 HO2'        2.1443   -0.7955    0.0378 H         1 ACP         0.4431
     43 H1'        -0.5175   -2.1046   -1.7826 H         1 ACP         0.1199
     44 H8         -3.2310   -2.1319    1.1889 H         1 ACP         0.2941
     45 HN61       -6.3230    0.5316   -0.7829 H         1 ACP         0.4754
     46 HN62       -6.5628    1.5584   -2.1760 H         1 ACP         0.4754
     47 H2         -2.4822    1.2710   -4.4579 H         1 ACP         0.0886
     48 H48        -4.7200    1.7780   -3.7346 H         1 ACP         0.4707
@<TRIPOS>BOND
     1    1    2 2
     2    1    3 1
     3    1    4 1
     4    1    8 1
     5    3   32 1
     6    4   33 1
     7    5    6 2
     8    5    7 1
     9    5    8 1
    10    5   12 1
    11    8   34 1
    12    8   35 1
    13    9   10 2
    14    9   11 1
    15    9   12 1
    16    9   13 1
    17   13   14 1
    18   14   15 1
    19   14   36 1
    20   14   37 1
    21   15   16 1
    22   15   17 1
    23   15   38 1
    24   16   21 1
    25   17   18 1
    26   17   19 1
    27   17   39 1
    28   18   40 1
    29   19   20 1
    30   19   21 1
    31   19   41 1
    32   20   42 1
    33   21   22 1
    34   21   43 1
    35   22   23 ar
    36   22   31 ar
    37   23   24 ar
    38   23   44 1
    39   24   25 ar
    40   25   26 ar
    41   25   31 ar
    42   26   27 1
    43   26   28 ar
    44   27   45 1
    45   27   46 1
    46   28   29 ar
    47   28   48 1
    48   29   30 ar
    49   29   47 1
    50   30   31 ar
@<TRIPOS>SUBSTRUCTURE
     1 ACP         1 GROUP 0 A     ****
@<TRIPOS>MOLECULE
[[5-(6-amino-1,8-dihydropurine-6,8-diylium-7-id-9-yl)-3,4-dihydroxy-tetrahydrofuran-2-yl]methoxy-oxido-phosphoryl]oxy-(phosphonomethyl)phosphinate
   48    50     1     0     0
SMALL
USER_CHARGES

@<TRIPOS>ATOM
      1 PG          4.7069   -3.6442   -6.7848 P.3       1 ACP         1.6558
      2 O1G         4.7338   -5.0987   -7.1469 O.2       1 ACP        -0.9020
      3 O2G         4.9683   -2.6200   -8.0066 O.3       1 ACP        -0.8036
      4 O3G         5.7833   -3.1877   -5.6700 O.3       1 ACP        -0.8036
      5 PB          2.8391   -1.3282   -5.5693 P.3       1 ACP         1.4945
      6 O1B         1.4208   -1.2502   -5.0537 O.co2     1 ACP        -0.8481
      7 O2B         3.3465   -0.4318   -6.6750 O.co2     1 ACP        -0.8481
      8 C3B         3.1355   -3.0760   -6.0968 C.3       1 ACP        -0.6636
      9 PA          4.4356   -0.0486   -3.4198 P.3       1 ACP         1.6023
     10 O1A         5.0324    0.9810   -4.3549 O.co2     1 ACP        -0.8673
     11 O2A         5.2456   -0.6069   -2.2700 O.co2     1 ACP        -0.8673
     12 O3A         3.8781   -1.2974   -4.3128 O.3       1 ACP        -0.8150
     13 O5'         3.0199    0.5139   -2.8245 O.3       1 ACP        -0.5522
     14 C5'         2.2816   -0.2918   -1.9206 C.3       1 ACP         0.2181
     15 C4'         2.7248    0.0226   -0.4980 C.3       1 ACP         0.0915
     16 O4'         2.4697    1.4219   -0.2462 O.3       1 ACP        -0.3675
     17 C3'         1.9404   -0.7419    0.5596 C.3       1 ACP         0.0748
     18 O3'         2.7418   -0.8086    1.7389 O.3       1 ACP        -0.5646
     19 C2'         0.7477    0.1630    0.7858 C.3       1 ACP         0.0804
     20 O2'         0.1373   -0.0577    2.0407 O.3       1 ACP        -0.5882
     21 C1'         1.3733    1.5427    0.6747 C.3       1 ACP         0.3809
     22 N9          0.4520    2.5240    0.1767 N.pl3     1 ACP        -0.4412
     23 C8          0.1798    2.8712   -1.2933 C.ar      1 ACP         0.1936
     24 N7         -0.7494    3.8400   -1.3610 N.2       1 ACP        -0.2746
     25 C5         -1.0173    4.0603   -0.0358 C.ar      1 ACP        -0.1386
     26 C6         -2.0105    5.0717    0.4241 C.ar      1 ACP         0.4778
     27 N6         -2.6723    5.7982   -0.4628 N.pl3     1 ACP        -0.8290
     28 N1         -2.1445    5.1522    1.7502 N.pl3     1 ACP        -0.6985
     29 C2         -1.3755    4.3143    2.6426 C.ar      1 ACP         0.6179
     30 N3         -0.5075    3.4292    2.2616 N.ar      1 ACP        -0.5105
     31 C4         -0.3667    3.3425    0.9070 C.ar      1 ACP         0.2753
     32 HOG2        5.8166   -2.6714   -8.4964 H         1 ACP         0.4487
     33 HOG3        6.7387   -3.3141   -5.8522 H         1 ACP         0.4487
     34 H3B1        2.3530   -3.2984   -6.8310 H         1 ACP         0.1088
     35 H3B2        2.9307   -3.6935   -5.2148 H         1 ACP         0.1088
     36 H5'1        1.2154   -0.0780   -2.0455 H         1 ACP         0.0327
     37 H5'2        2.4646   -1.3453   -2.1548 H         1 ACP         0.0327
     38 H4'         3.8046   -0.1390   -0.4011 H         1 ACP         0.1275
     39 H3'         1.6787   -1.7627    0.2719 H         1 ACP         0.0637
     40 HO3'        2.2231   -1.2979    2.3952 H         1 ACP         0.4127
     41 H2'         0.0002   -0.0084   -0.0014 H         1 ACP         0.0692
     42 HO2'       -0.6132    0.5577    2.1063 H         1 ACP         0.4431
     43 H1'         1.7718    1.9211    1.6015 H         1 ACP         0.1199
     44 H8          0.6089    2.4651   -2.2147 H         1 ACP         0.2941
     45 HN61       -2.5055    5.6680   -1.4503 H         1 ACP         0.4754
     46 HN62       -3.3462    6.4841   -0.1542 H         1 ACP         0.4754
     47 H2         -1.5932    4.4937    3.7066 H         1 ACP         0.0886
     48 H48        -2.8098    5.8270    2.1160 H         1 ACP         0.4707
@<TRIPOS>BOND
     1    1    2 2
     2    1    3 1
     3    1    4 1
     4    1    8 1
     5    3   32 1
     6    4   33 1
     7    5    6 2
     8    5    7 1
     9    5    8 1
    10    5   12 1
    11    8   34 1
    12    8   35 1
    13    9   10 2
    14    9   11 1
    15    9   12 1
    16    9   13 1
    17   13   14 1
    18   14   15 1
    19   14   36 1
    20   14   37 1
    21   15   16 1
    22   15   17 1
    23   15   38 1
    24   16   21 1
    25   17   18 1
    26   17   19 1
    27   17   39 1
    28   18   40 1
    29   19   20 1
    30   19   21 1
    31   19   41 1
    32   20   42 1
    33   21   22 1
    34   21   43 1
    35   22   23 ar
    36   22   31 ar
    37   23   24 ar
    38   23   44 1
    39   24   25 ar
    40   25   26 ar
    41   25   31 ar
    42   26   27 1
    43   26   28 ar
    44   27   45 1
    45   27   46 1
    46   28   29 ar
    47   28   48 1
    48   29   30 ar
    49   29   47 1
    50   30   31 ar
@<TRIPOS>SUBSTRUCTURE
     1 ACP         1 GROUP 0 A     ****
@<TRIPOS>MOLECULE
[[5-(6-amino-1,8-dihydropurine-6,8-diylium-7-id-9-yl)-3,4-dihydroxy-tetrahydrofuran-2-yl]methoxy-oxido-phosphoryl]oxy-(phosphonomethyl)phosphinate
   48    50     1     0     0
SMALL
USER_CHARGES

@<TRIPOS>ATOM
      1 PG          3.7893   -4.3683   -3.5755 P.3       1 ACP         1.6558
      2 O1G         3.7003   -5.8169   -3.9511 O.2       1 ACP        -0.9020
      3 O2G         4.4873   -4.0624   -2.1509 O.3       1 ACP        -0.8036
      4 O3G         2.3775   -3.5889   -3.4815 O.3       1 ACP        -0.8036
      5 PB          5.0047   -1.5398   -4.4985 P.3       1 ACP         1.4945
      6 O1B         5.8431   -1.0569   -5.6594 O.co2     1 ACP        -0.8481
      7 O2B         5.4162   -1.3236   -3.0607 O.co2     1 ACP        -0.8481
      8 C3B         4.7424   -3.3560   -4.7297 C.3       1 ACP        -0.6636
      9 PA          2.7380    0.3741   -4.4295 P.3       1 ACP         1.6023
     10 O1A         1.2513    0.2198   -4.6674 O.co2     1 ACP        -0.8673
     11 O2A         3.5254    1.4501   -5.1452 O.co2     1 ACP        -0.8673
     12 O3A         3.4589   -1.0647   -4.7080 O.3       1 ACP        -0.8150
     13 O5'         3.0199    0.5139   -2.8245 O.3       1 ACP        -0.5522
     14 C5'         2.2816   -0.2918   -1.9206 C.3       1 ACP         0.2181
     15 C4'         2.7248    0.0226   -0.4980 C.3       1 ACP         0.0915
     16 O4'         2.4697    1.4219   -0.2462 O.3       1 ACP        -0.3675
     17 C3'         1.9404   -0.7419    0.5596 C.3       1 ACP         0.0748
     18 O3'         2.7418   -0.8086    1.7389 O.3       1 ACP        -0.5646
     19 C2'         0.7477    0.1630    0.7858 C.3       1 ACP         0.0804
     20 O2'         0.1373   -0.0577    2.0407 O.3       1 ACP        -0.5882
     21 C1'         1.3733    1.5427    0.6747 C.3       1 ACP         0.3809
     22 N9          0.4520    2.5240    0.1767 N.pl3     1 ACP        -0.4412
     23 C8         -0.7463    2.2774   -0.7501 C.ar      1 ACP         0.1936
     24 N7         -1.3714    3.4419   -0.9948 N.2       1 ACP        -0.2746
     25 C5         -0.6104    4.3223   -0.2723 C.ar      1 ACP        -0.1386
     26 C6         -0.9062    5.7820   -0.2194 C.ar      1 ACP         0.4778
     27 N6         -1.9385    6.2713   -0.8881 N.pl3     1 ACP        -0.8290
     28 N1         -0.0613    6.4906    0.5336 N.pl3     1 ACP        -0.6985
     29 C2          1.0416    5.8662    1.2291 C.ar      1 ACP         0.6179
     30 N3          1.3146    4.5989    1.1954 N.ar      1 ACP        -0.5105
     31 C4          0.4541    3.8697    0.4273 C.ar      1 ACP         0.2753
     32 HOG2        4.0903   -4.4388   -1.3368 H         1 ACP         0.4487
     33 HOG3        1.7028   -3.9032   -2.8428 H         1 ACP         0.4487
     34 H3B1        5.7455   -3.7914   -4.8015 H         1 ACP         0.1088
     35 H3B2        4.2746   -3.4676   -5.7146 H         1 ACP         0.1088
     36 H5'1        1.2154   -0.0780   -2.0455 H         1 ACP         0.0327
     37 H5'2        2.4646   -1.3453   -2.1548 H         1 ACP         0.0327
     38 H4'         3.8046   -0.1390   -0.4011 H         1 ACP         0.1275
     39 H3'         1.6787   -1.7627    0.2719 H         1 ACP         0.0637
     40 HO3'        2.2231   -1.2979    2.3952 H         1 ACP         0.4127
     41 H2'         0.0002   -0.0084   -0.0014 H         1 ACP         0.0692
     42 HO2'       -0.6132    0.5577    2.1063 H         1 ACP         0.4431
     43 H1'         1.7718    1.9211    1.6015 H         1 ACP         0.1199
     44 H8         -1.1244    1.3534   -1.1987 H         1 ACP         0.2941
     45 HN61       -2.5259    5.6573   -1.4336 H         1 ACP         0.4754
     46 HN62       -2.1416    7.2600   -0.8539 H         1 ACP         0.4754
     47 H2          1.6509    6.5764    1.8088 H         1 ACP         0.0886
     48 H48        -0.2190    7.4917    0.6033 H         1 ACP         0.4707
@<TRIPOS>BOND
     1    1    2 2
     2    1    3 1
     3    1    4 1
     4    1    8 1
     5    3   32 1
     6    4   33 1
     7    5    6 2
     8    5    7 1
     9    5    8 1
    10    5   12 1
    11    8   34 1
    12    8   35 1
    13    9   10 2
    14    9   11 1
    15    9   12 1
    16    9   13 1
    17   13   14 1
    18   14   15 1
    19   14   36 1
    20   14   37 1
    21   15   16 1
    22   15   17 1
    23   15   38 1
    24   16   21 1
    25   17   18 1
    26   17   19 1
    27   17   39 1
    28   18   40 1
    29   19   20 1
    30   19   21 1
    31   19   41 1
    32   20   42 1
    33   21   22 1
    34   21   43 1
    35   22   23 ar
    36   22   31 ar
    37   23   24 ar
    38   23   44 1
    39   24   25 ar
    40   25   26 ar
    41   25   31 ar
    42   26   27 1
    43   26   28 ar
    44   27   45 1
    45   27   46 1
    46   28   29 ar
    47   28   48 1
    48   29   30 ar
    49   29   47 1
    50   30   31 ar
@<TRIPOS>SUBSTRUCTURE
     1 ACP         1 GROUP 0 A     ****
@<TRIPOS>MOLECULE
[[5-(6-amino-1,8-dihydropurine-6,8-diylium-7-id-9-yl)-3,4-dihydroxy-tetrahydrofuran-2-yl]methoxy-oxido-phosphoryl]oxy-(phosphonomethyl)phosphinate
   48    50     1     0     0
SMALL
USER_CHARGES

@<TRIPOS>ATOM
      1 PG          1.8594   -4.8439    5.9237 P.3       1 ACP         1.6558
      2 O1G         2.8084   -4.0718    5.0574 O.2       1 ACP        -0.9020
      3 O2G         0.3485   -4.2741    5.9773 O.3       1 ACP        -0.8036
      4 O3G         2.2777   -4.9570    7.4800 O.3       1 ACP        -0.8036
      5 PB          0.9849   -7.0665    3.7731 P.3       1 ACP         1.4945
      6 O1B         0.9432   -8.5768    3.7437 O.co2     1 ACP        -0.8481
      7 O2B         1.7306   -6.2593    2.7359 O.co2     1 ACP        -0.8481
      8 C3B         1.6348   -6.5680    5.4315 C.3       1 ACP        -0.6636
      9 PA         -1.7213   -6.2745    2.8484 P.3       1 ACP         1.6023
     10 O1A        -2.8743   -5.5640    3.5241 O.co2     1 ACP        -0.8673
     11 O2A        -1.9411   -7.5856    2.1255 O.co2     1 ACP        -0.8673
     12 O3A        -0.5281   -6.4829    3.9441 O.3       1 ACP        -0.8150
     13 O5'        -0.9728   -5.2428    1.8236 O.3       1 ACP        -0.5522
     14 C5'        -0.7840   -3.8935    2.2172 C.3       1 ACP         0.2181
     15 C4'        -0.0724   -3.1466    1.1027 C.3       1 ACP         0.0915
     16 O4'        -0.8674   -3.1929   -0.0945 O.3       1 ACP        -0.3675
     17 C3'         0.1338   -1.6715    1.4027 C.3       1 ACP         0.0748
     18 O3'         1.2893   -1.4445    2.1808 O.3       1 ACP        -0.5646
     19 C2'         0.2158   -1.0724    0.0128 C.3       1 ACP         0.0804
     20 O2'         1.5141   -1.2448   -0.5513 O.3       1 ACP        -0.5882
     21 C1'        -0.7897   -1.9176   -0.7583 C.3       1 ACP         0.3809
     22 N9         -2.1040   -1.3333   -0.7704 N.pl3     1 ACP        -0.4412
     23 C8         -3.2124   -1.5345    0.2719 C.ar      1 ACP         0.1936
     24 N7         -4.2964   -0.8234   -0.0828 N.2       1 ACP        -0.2746
     25 C5         -3.8754   -0.2386   -1.2478 C.ar      1 ACP        -0.1386
     26 C6         -4.7432    0.6719   -2.0470 C.ar      1 ACP         0.4778
     27 N6         -5.9725    0.9415   -1.6366 N.pl3     1 ACP        -0.8290
     28 N1         -4.1703    1.1517   -3.1536 N.pl3     1 ACP        -0.6985
     29 C2         -2.8174    0.7994   -3.5215 C.ar      1 ACP         0.6179
     30 N3         -2.0475    0.0097   -2.8393 N.ar      1 ACP        -0.5105
     31 C4         -2.6278   -0.4836   -1.7071 C.ar      1 ACP         0.2753
     32 HOG2        0.1959   -3.3624    6.3053 H         1 ACP         0.4487
     33 HOG3        2.3792   -4.1352    8.0057 H         1 ACP         0.4487
     34 H3B1        2.6041   -7.0695    5.5304 H         1 ACP         0.1088
     35 H3B2        0.9622   -7.0253    6.1661 H         1 ACP         0.1088
     36 H5'1       -1.7614   -3.4428    2.4166 H         1 ACP         0.0327
     37 H5'2       -0.1870   -3.8724    3.1344 H         1 ACP         0.0327
     38 H4'         0.8883   -3.6447    0.8783 H         1 ACP         0.1275
     39 H3'        -0.7368   -1.2359    1.9871 H         1 ACP         0.0637
     40 HO3'        1.1625   -1.9325    3.0084 H         1 ACP         0.4127
     41 H2'        -0.0343   -0.0280    0.0196 H         1 ACP         0.0692
     42 HO2'        2.1443   -0.7955    0.0378 H         1 ACP         0.4431
     43 H1'        -0.5175   -2.1046   -1.7826 H         1 ACP         0.1199
     44 H8         -3.2310   -2.1319    1.1889 H         1 ACP         0.2941
     45 HN61       -6.3230    0.5316   -0.7829 H         1 ACP         0.4754
     46 HN62       -6.5628    1.5584   -2.1760 H         1 ACP         0.4754
     47 H2         -2.4822    1.2710   -4.4579 H         1 ACP         0.0886
     48 H48        -4.7200    1.7780   -3.7346 H         1 ACP         0.4707
@<TRIPOS>BOND
     1    1    2 2
     2    1    3 1
     3    1    4 1
     4    1    8 1
     5    3   32 1
     6    4   33 1
     7    5    6 2
     8    5    7 1
     9    5    8 1
    10    5   12 1
    11    8   34 1
    12    8   35 1
    13    9   10 2
    14    9   11 1
    15    9   12 1
    16    9   13 1
    17   13   14 1
    18   14   15 1
    19   14   36 1
    20   14   37 1
    21   15   16 1
    22   15   17 1
    23   15   38 1
    24   16   21 1
    25   17   18 1
    26   17   19 1
    27   17   39 1
    28   18   40 1
    29   19   20 1
    30   19   21 1
    31   19   41 1
    32   20   42 1
    33   21   22 1
    34   21   43 1
    35   22   23 ar
    36   22   31 ar
    37   23   24 ar
    38   23   44 1
    39   24   25 ar
    40   25   26 ar
    41   25   31 ar
    42   26   27 1
    43   26   28 ar
    44   27   45 1
    45   27   46 1
    46   28   29 ar
    47   28   48 1
    48   29   30 ar
    49   29   47 1
    50   30   31 ar
@<TRIPOS>SUBSTRUCTURE
     1 ACP         1 GROUP 0 A     ****
@<TRIPOS>MOLECULE
[[5-(6-amino-1,8-dihydropurine-6,8-diylium-7-id-9-yl)-3,4-dihydroxy-tetrahydrofuran-2-yl]methoxy-oxido-phosphoryl]oxy-(phosphonomethyl)phosphinate
   48    50     1     0     0
SMALL
USER_CHARGES

@<TRIPOS>ATOM
      1 PG         -0.5455   -0.4871   -7.2931 P.3       1 ACP         1.6558
      2 O1G         0.1653   -1.8062   -7.2503 O.2       1 ACP        -0.9020
      3 O2G        -2.1573   -0.5693   -7.3682 O.3       1 ACP        -0.8036
      4 O3G        -0.1561    0.4698   -8.5351 O.3       1 ACP        -0.8036
      5 PB          1.4317    1.1584   -5.3662 P.3       1 ACP         1.4945
      6 O1B         1.2663    2.0041   -4.1249 O.co2     1 ACP        -0.8481
      7 O2B         2.1051    1.6799   -6.6145 O.co2     1 ACP        -0.8481
      8 C3B        -0.2510    0.5657   -5.8542 C.3       1 ACP        -0.6636
      9 PA          3.4810   -0.6670   -4.2373 P.3       1 ACP         1.6023
     10 O1A         4.6070   -0.0329   -5.0251 O.co2     1 ACP        -0.8673
     11 O2A         3.4859   -2.1517   -3.9447 O.co2     1 ACP        -0.8673
     12 O3A         2.0662   -0.2878   -4.9597 O.3       1 ACP        -0.8150
     13 O5'         3.2885    0.1337   -2.8242 O.3       1 ACP        -0.5522
     14 C5'         2.2816   -0.2918   -1.9206 C.3       1 ACP         0.2181
     15 C4'         2.7248    0.0226   -0.4980 C.3       1 ACP         0.0915
     16 O4'         2.4697    1.4219   -0.2462 O.3       1 ACP        -0.3675
     17 C3'         1.9404   -0.7419    0.5596 C.3       1 ACP         0.0748
     18 O3'         2.7418   -0.8086    1.7389 O.3       1 ACP        -0.5646
     19 C2'         0.7477    0.1630    0.7858 C.3       1 ACP         0.0804
     20 O2'         0.1373   -0.0577    2.0407 O.3       1 ACP        -0.5882
     21 C1'         1.3733    1.5427    0.6747 C.3       1 ACP         0.3809
     22 N9          0.4520    2.5240    0.1767 N.pl3     1 ACP        -0.4412
     23 C8         -0.3054    2.4845   -1.1576 C.ar      1 ACP         0.1936
     24 N7         -1.0755    3.5806   -1.2691 N.2       1 ACP        -0.2746
     25 C5         -0.8043    4.2306   -0.0942 C.ar      1 ACP        -0.1386
     26 C6         -1.4324    5.5335    0.2646 C.ar      1 ACP         0.4778
     27 N6         -2.2885    6.1054   -0.5675 N.pl3     1 ACP        -0.8290
     28 N1         -1.0537    6.0229    1.4478 N.pl3     1 ACP        -0.6985
     29 C2         -0.1096    5.3242    2.2908 C.ar      1 ACP         0.6179
     30 N3          0.4468    4.1904    1.9960 N.ar      1 ACP        -0.5105
     31 C4          0.0631    3.6855    0.7877 C.ar      1 ACP         0.2753
     32 HOG2       -2.5747   -1.0273   -8.1285 H         1 ACP         0.4487
     33 HOG3       -0.3099    0.1484   -9.4490 H         1 ACP         0.4487
     34 H3B1       -0.8576    1.4702   -5.9761 H         1 ACP         0.1088
     35 H3B2       -0.6449    0.0322   -4.9817 H         1 ACP         0.1088
     36 H5'1        1.3501    0.2325   -2.1561 H         1 ACP         0.0327
     37 H5'2        2.1268   -1.3683   -2.0445 H         1 ACP         0.0327
     38 H4'         3.8046   -0.1390   -0.4011 H         1 ACP         0.1275
     39 H3'         1.6787   -1.7627    0.2719 H         1 ACP         0.0637
     40 HO3'        2.2231   -1.2979    2.3952 H         1 ACP         0.4127
     41 H2'         0.0002   -0.0084   -0.0014 H         1 ACP         0.0692
     42 HO2'       -0.6132    0.5577    2.1063 H         1 ACP         0.4431
     43 H1'         1.7718    1.9211    1.6015 H         1 ACP         0.1199
     44 H8         -0.2991    1.7413   -1.9611 H         1 ACP         0.2941
     45 HN61       -2.5167    5.6603   -1.4447 H         1 ACP         0.4754
     46 HN62       -2.7159    6.9882   -0.3270 H         1 ACP         0.4754
     47 H2          0.1059    5.8491    3.2340 H         1 ACP         0.0886
     48 H48        -1.4532    6.9099    1.7401 H         1 ACP         0.4707
@<TRIPOS>BOND
     1    1    2 2
     2    1    3 1
     3    1    4 1
     4    1    8 1
     5    3   32 1
     6    4   33 1
     7    5    6 2
     8    5    7 1
     9    5    8 1
    10    5   12 1
    11    8   34 1
    12    8   35 1
    13    9   10 2
    14    9   11 1
    15    9   12 1
    16    9   13 1
    17   13   14 1
    18   14   15 1
    19   14   36 1
    20   14   37 1
    21   15   16 1
    22   15   17 1
    23   15   38 1
    24   16   21 1
    25   17   18 1
    26   17   19 1
    27   17   39 1
    28   18   40 1
    29   19   20 1
    30   19   21 1
    31   19   41 1
    32   20   42 1
    33   21   22 1
    34   21   43 1
    35   22   23 ar
    36   22   31 ar
    37   23   24 ar
    38   23   44 1
    39   24   25 ar
    40   25   26 ar
    41   25   31 ar
    42   26   27 1
    43   26   28 ar
    44   27   45 1
    45   27   46 1
    46   28   29 ar
    47   28   48 1
    48   29   30 ar
    49   29   47 1
    50   30   31 ar
@<TRIPOS>SUBSTRUCTURE
     1 ACP         1 GROUP 0 A     ****
@<TRIPOS>MOLECULE
[[5-(6-amino-1,8-dihydropurine-6,8-diylium-7-id-9-yl)-3,4-dihydroxy-tetrahydrofuran-2-yl]methoxy-oxido-phosphoryl]oxy-(phosphonomethyl)phosphinate
   48    50     1     0     0
SMALL
USER_CHARGES

@<TRIPOS>ATOM
      1 PG          2.1428   -2.1413   -7.4006 P.3       1 ACP         1.6558
      2 O1G         1.2797   -1.5424   -8.4701 O.2       1 ACP        -0.9020
      3 O2G         2.8168   -3.5630   -7.7679 O.3       1 ACP        -0.8036
      4 O3G         1.4044   -2.4241   -5.9919 O.3       1 ACP        -0.8036
      5 PB          4.7771   -1.6298   -5.6319 P.3       1 ACP         1.4945
      6 O1B         5.8017   -0.5243   -5.5234 O.co2     1 ACP        -0.8481
      7 O2B         5.1631   -3.0633   -5.9141 O.co2     1 ACP        -0.8481
      8 C3B         3.5577   -1.1221   -6.9265 C.3       1 ACP        -0.6636
      9 PA          3.9659   -2.1095   -2.8180 P.3       1 ACP         1.6023
     10 O1A         5.0701   -1.3086   -2.1624 O.co2     1 ACP        -0.8673
     11 O2A         4.0235   -3.6214   -2.8472 O.co2     1 ACP        -0.8673
     12 O3A         3.7737   -1.5707   -4.3478 O.3       1 ACP        -0.8150
     13 O5'         2.5238   -1.6632   -2.1888 O.3       1 ACP        -0.5522
     14 C5'         2.2816   -0.2918   -1.9206 C.3       1 ACP         0.2181
     15 C4'         2.7248    0.0226   -0.4980 C.3       1 ACP         0.0915
     16 O4'         2.4697    1.4219   -0.2462 O.3       1 ACP        -0.3675
     17 C3'         1.9404   -0.7419    0.5596 C.3       1 ACP         0.0748
     18 O3'         2.7418   -0.8086    1.7389 O.3       1 ACP        -0.5646
     19 C2'         0.7477    0.1630    0.7858 C.3       1 ACP         0.0804
     20 O2'         0.1373   -0.0577    2.0407 O.3       1 ACP        -0.5882
     21 C1'         1.3733    1.5427    0.6747 C.3       1 ACP         0.3809
     22 N9          0.4520    2.5240    0.1767 N.pl3     1 ACP        -0.4412
     23 C8          0.1798    2.8712   -1.2933 C.ar      1 ACP         0.1936
     24 N7         -0.7494    3.8400   -1.3610 N.2       1 ACP        -0.2746
     25 C5         -1.0173    4.0603   -0.0358 C.ar      1 ACP        -0.1386
     26 C6         -2.0105    5.0717    0.4241 C.ar      1 ACP         0.4778
     27 N6         -2.6723    5.7982   -0.4628 N.pl3     1 ACP        -0.8290
     28 N1         -2.1445    5.1522    1.7502 N.pl3     1 ACP        -0.6985
     29 C2         -1.3755    4.3143    2.6426 C.ar      1 ACP         0.6179
     30 N3         -0.5075    3.4292    2.2616 N.ar      1 ACP        -0.5105
     31 C4         -0.3667    3.3425    0.9070 C.ar      1 ACP         0.2753
     32 HOG2        2.2352   -4.3234   -7.9815 H         1 ACP         0.4487
     33 HOG3        0.6368   -3.0344   -5.9718 H         1 ACP         0.4487
     34 H3B1        4.1486   -0.9353   -7.8302 H         1 ACP         0.1088
     35 H3B2        3.1596   -0.1547   -6.5996 H         1 ACP         0.1088
     36 H5'1        2.8430    0.3138   -2.6391 H         1 ACP         0.0327
     37 H5'2        1.2126   -0.0907   -2.0421 H         1 ACP         0.0327
     38 H4'         3.8046   -0.1390   -0.4011 H         1 ACP         0.1275
     39 H3'         1.6787   -1.7627    0.2719 H         1 ACP         0.0637
     40 HO3'        2.2231   -1.2979    2.3952 H         1 ACP         0.4127
     41 H2'         0.0002   -0.0084   -0.0014 H         1 ACP         0.0692
     42 HO2'       -0.1554   -0.9852    2.0577 H         1 ACP         0.4431
     43 H1'         1.7718    1.9211    1.6015 H         1 ACP         0.1199
     44 H8          0.6089    2.4651   -2.2147 H         1 ACP         0.2941
     45 HN61       -2.5055    5.6680   -1.4503 H         1 ACP         0.4754
     46 HN62       -3.3462    6.4841   -0.1542 H         1 ACP         0.4754
     47 H2         -1.5932    4.4937    3.7066 H         1 ACP         0.0886
     48 H48        -2.8098    5.8270    2.1160 H         1 ACP         0.4707
@<TRIPOS>BOND
     1    1    2 2
     2    1    3 1
     3    1    4 1
     4    1    8 1
     5    3   32 1
     6    4   33 1
     7    5    6 2
     8    5    7 1
     9    5    8 1
    10    5   12 1
    11    8   34 1
    12    8   35 1
    13    9   10 2
    14    9   11 1
    15    9   12 1
    16    9   13 1
    17   13   14 1
    18   14   15 1
    19   14   36 1
    20   14   37 1
    21   15   16 1
    22   15   17 1
    23   15   38 1
    24   16   21 1
    25   17   18 1
    26   17   19 1
    27   17   39 1
    28   18   40 1
    29   19   20 1
    30   19   21 1
    31   19   41 1
    32   20   42 1
    33   21   22 1
    34   21   43 1
    35   22   23 ar
    36   22   31 ar
    37   23   24 ar
    38   23   44 1
    39   24   25 ar
    40   25   26 ar
    41   25   31 ar
    42   26   27 1
    43   26   28 ar
    44   27   45 1
    45   27   46 1
    46   28   29 ar
    47   28   48 1
    48   29   30 ar
    49   29   47 1
    50   30   31 ar
@<TRIPOS>SUBSTRUCTURE
     1 ACP         1 GROUP 0 A     ****
@<TRIPOS>MOLECULE
[[5-(6-amino-1,8-dihydropurine-6,8-diylium-7-id-9-yl)-3,4-dihydroxy-tetrahydrofuran-2-yl]methoxy-oxido-phosphoryl]oxy-(phosphonomethyl)phosphinate
   48    50     1     0     0
SMALL
USER_CHARGES

@<TRIPOS>ATOM
      1 PG         -2.6877   -2.1318   -4.5452 P.3       1 ACP         1.6558
      2 O1G        -2.9598   -3.4556   -5.1939 O.2       1 ACP        -0.9020
      3 O2G        -3.9704   -1.1635   -4.3794 O.3       1 ACP        -0.8036
      4 O3G        -1.6041   -1.2004   -5.2989 O.3       1 ACP        -0.8036
      5 PB         -0.4463   -3.1009   -2.4554 P.3       1 ACP         1.4945
      6 O1B        -0.5906   -4.5425   -2.8847 O.co2     1 ACP        -0.8481
      7 O2B        -0.0762   -2.7125   -1.0427 O.co2     1 ACP        -0.8481
      8 C3B        -2.0345   -2.2455   -2.8641 C.3       1 ACP        -0.6636
      9 PA          2.1358   -2.2685   -3.6578 P.3       1 ACP         1.6023
     10 O1A         2.4970   -1.2612   -4.7281 O.co2     1 ACP        -0.8673
     11 O2A         2.6457   -3.6911   -3.7347 O.co2     1 ACP        -0.8673
     12 O3A         0.5094   -2.3101   -3.5139 O.3       1 ACP        -0.8150
     13 O5'         2.5238   -1.6632   -2.1888 O.3       1 ACP        -0.5522
     14 C5'         2.2816   -0.2918   -1.9206 C.3       1 ACP         0.2181
     15 C4'         2.7248    0.0226   -0.4980 C.3       1 ACP         0.0915
     16 O4'         2.4697    1.4219   -0.2462 O.3       1 ACP        -0.3675
     17 C3'         1.9404   -0.7419    0.5596 C.3       1 ACP         0.0748
     18 O3'         2.7418   -0.8086    1.7389 O.3       1 ACP        -0.5646
     19 C2'         0.7477    0.1630    0.7858 C.3       1 ACP         0.0804
     20 O2'         0.1373   -0.0577    2.0407 O.3       1 ACP        -0.5882
     21 C1'         1.3733    1.5427    0.6747 C.3       1 ACP         0.3809
     22 N9          0.4520    2.5240    0.1767 N.pl3     1 ACP        -0.4412
     23 C8         -0.3054    2.4845   -1.1576 C.ar      1 ACP         0.1936
     24 N7         -1.0755    3.5806   -1.2691 N.2       1 ACP        -0.2746
     25 C5         -0.8043    4.2306   -0.0942 C.ar      1 ACP        -0.1386
     26 C6         -1.4324    5.5335    0.2646 C.ar      1 ACP         0.4778
     27 N6         -2.2885    6.1054   -0.5675 N.pl3     1 ACP        -0.8290
     28 N1         -1.0537    6.0229    1.4478 N.pl3     1 ACP        -0.6985
     29 C2         -0.1096    5.3242    2.2908 C.ar      1 ACP         0.6179
     30 N3          0.4468    4.1904    1.9960 N.ar      1 ACP        -0.5105
     31 C4          0.0631    3.6855    0.7877 C.ar      1 ACP         0.2753
     32 HOG2       -4.4569   -0.8780   -5.1818 H         1 ACP         0.4487
     33 HOG3       -1.7791   -0.9200   -6.2223 H         1 ACP         0.4487
     34 H3B1       -1.9256   -1.2244   -2.4816 H         1 ACP         0.1088
     35 H3B2       -2.8030   -2.7346   -2.2548 H         1 ACP         0.1088
     36 H5'1        2.8430    0.3138   -2.6391 H         1 ACP         0.0327
     37 H5'2        1.2126   -0.0907   -2.0421 H         1 ACP         0.0327
     38 H4'         3.8046   -0.1390   -0.4011 H         1 ACP         0.1275
     39 H3'         1.6787   -1.7627    0.2719 H         1 ACP         0.0637
     40 HO3'        3.5553   -1.2733    1.4913 H         1 ACP         0.4127
     41 H2'         0.0002   -0.0084   -0.0014 H         1 ACP         0.0692
     42 HO2'       -0.1554   -0.9852    2.0577 H         1 ACP         0.4431
     43 H1'         1.7718    1.9211    1.6015 H         1 ACP         0.1199
     44 H8         -0.2991    1.7413   -1.9611 H         1 ACP         0.2941
     45 HN61       -2.5167    5.6603   -1.4447 H         1 ACP         0.4754
     46 HN62       -2.7159    6.9882   -0.3270 H         1 ACP         0.4754
     47 H2          0.1059    5.8491    3.2340 H         1 ACP         0.0886
     48 H48        -1.4532    6.9099    1.7401 H         1 ACP         0.4707
@<TRIPOS>BOND
     1    1    2 2
     2    1    3 1
     3    1    4 1
     4    1    8 1
     5    3   32 1
     6    4   33 1
     7    5    6 2
     8    5    7 1
     9    5    8 1
    10    5   12 1
    11    8   34 1
    12    8   35 1
    13    9   10 2
    14    9   11 1
    15    9   12 1
    16    9   13 1
    17   13   14 1
    18   14   15 1
    19   14   36 1
    20   14   37 1
    21   15   16 1
    22   15   17 1
    23   15   38 1
    24   16   21 1
    25   17   18 1
    26   17   19 1
    27   17   39 1
    28   18   40 1
    29   19   20 1
    30   19   21 1
    31   19   41 1
    32   20   42 1
    33   21   22 1
    34   21   43 1
    35   22   23 ar
    36   22   31 ar
    37   23   24 ar
    38   23   44 1
    39   24   25 ar
    40   25   26 ar
    41   25   31 ar
    42   26   27 1
    43   26   28 ar
    44   27   45 1
    45   27   46 1
    46   28   29 ar
    47   28   48 1
    48   29   30 ar
    49   29   47 1
    50   30   31 ar
@<TRIPOS>SUBSTRUCTURE
     1 ACP         1 GROUP 0 A     ****
@<TRIPOS>MOLECULE
[[5-(6-amino-1,8-dihydropurine-6,8-diylium-7-id-9-yl)-3,4-dihydroxy-tetrahydrofuran-2-yl]methoxy-oxido-phosphoryl]oxy-(phosphonomethyl)phosphinate
   48    50     1     0     0
SMALL
USER_CHARGES

@<TRIPOS>ATOM
      1 PG          1.5370   -4.0572   -5.0283 P.3       1 ACP         1.6558
      2 O1G         0.0411   -4.0125   -4.9408 O.2       1 ACP        -0.9020
      3 O2G         2.1736   -5.5192   -5.2882 O.3       1 ACP        -0.8036
      4 O3G         2.3237   -3.5278   -3.7204 O.3       1 ACP        -0.8036
      5 PB          1.9927   -1.2285   -6.4846 P.3       1 ACP         1.4945
      6 O1B         0.5057   -0.9804   -6.5894 O.co2     1 ACP        -0.8481
      7 O2B         2.9716   -0.7119   -7.5134 O.co2     1 ACP        -0.8481
      8 C3B         2.2361   -3.0578   -6.3618 C.3       1 ACP        -0.6636
      9 PA          2.8587    0.6155   -4.3269 P.3       1 ACP         1.6023
     10 O1A         1.5848    1.4289   -4.2490 O.co2     1 ACP        -0.8673
     11 O2A         4.0862    1.1698   -5.0168 O.co2     1 ACP        -0.8673
     12 O3A         2.5065   -0.8361   -4.9876 O.3       1 ACP        -0.8150
     13 O5'         3.2885    0.1337   -2.8242 O.3       1 ACP        -0.5522
     14 C5'         2.2816   -0.2918   -1.9206 C.3       1 ACP         0.2181
     15 C4'         2.7248    0.0226   -0.4980 C.3       1 ACP         0.0915
     16 O4'         2.4697    1.4219   -0.2462 O.3       1 ACP        -0.3675
     17 C3'         1.9404   -0.7419    0.5596 C.3       1 ACP         0.0748
     18 O3'         2.7418   -0.8086    1.7389 O.3       1 ACP        -0.5646
     19 C2'         0.7477    0.1630    0.7858 C.3       1 ACP         0.0804
     20 O2'         0.1373   -0.0577    2.0407 O.3       1 ACP        -0.5882
     21 C1'         1.3733    1.5427    0.6747 C.3       1 ACP         0.3809
     22 N9          0.4520    2.5240    0.1767 N.pl3     1 ACP        -0.4412
     23 C8          0.5793    3.3338   -1.1209 C.ar      1 ACP         0.1936
     24 N7         -0.4807    4.1508   -1.2458 N.2       1 ACP        -0.2746
     25 C5         -1.1921    3.8572   -0.1126 C.ar      1 ACP        -0.1386
     26 C6         -2.4855    4.5203    0.2163 C.ar      1 ACP         0.4778
     27 N6         -2.9873    5.4319   -0.6020 N.pl3     1 ACP        -0.8290
     28 N1         -3.0414    4.1119    1.3596 N.pl3     1 ACP        -0.6985
     29 C2         -2.4169    3.1071    2.1904 C.ar      1 ACP         0.6179
     30 N3         -1.2928    2.5191    1.9210 N.ar      1 ACP        -0.5105
     31 C4         -0.7202    2.9326    0.7534 C.ar      1 ACP         0.2753
     32 HOG2        2.0066   -6.2327   -4.6363 H         1 ACP         0.4487
     33 HOG3        2.1763   -3.9791   -2.8622 H         1 ACP         0.4487
     34 H3B1        3.3212   -3.2105   -6.3558 H         1 ACP         0.1088
     35 H3B2        1.8602   -3.4735   -7.3036 H         1 ACP         0.1088
     36 H5'1        1.3501    0.2325   -2.1561 H         1 ACP         0.0327
     37 H5'2        2.1268   -1.3683   -2.0445 H         1 ACP         0.0327
     38 H4'         3.8046   -0.1390   -0.4011 H         1 ACP         0.1275
     39 H3'         1.6787   -1.7627    0.2719 H         1 ACP         0.0637
     40 HO3'        2.2231   -1.2979    2.3952 H         1 ACP         0.4127
     41 H2'         0.0002   -0.0084   -0.0014 H         1 ACP         0.0692
     42 HO2'       -0.1554   -0.9852    2.0577 H         1 ACP         0.4431
     43 H1'         1.7718    1.9211    1.6015 H         1 ACP         0.1199
     44 H8          1.3565    3.3309   -1.8916 H         1 ACP         0.2941
     45 HN61       -2.4952    5.6785   -1.4487 H         1 ACP         0.4754
     46 HN62       -3.8637    5.8828   -0.3819 H         1 ACP         0.4754
     47 H2         -2.9911    2.8734    3.1000 H         1 ACP         0.0886
     48 H48        -3.9253    4.5332    1.6302 H         1 ACP         0.4707
@<TRIPOS>BOND
     1    1    2 2
     2    1    3 1
     3    1    4 1
     4    1    8 1
     5    3   32 1
     6    4   33 1
     7    5    6 2
     8    5    7 1
     9    5    8 1
    10    5   12 1
    11    8   34 1
    12    8   35 1
    13    9   10 2
    14    9   11 1
    15    9   12 1
    16    9   13 1
    17   13   14 1
    18   14   15 1
    19   14   36 1
    20   14   37 1
    21   15   16 1
    22   15   17 1
    23   15   38 1
    24   16   21 1
    25   17   18 1
    26   17   19 1
    27   17   39 1
    28   18   40 1
    29   19   20 1
    30   19   21 1
    31   19   41 1
    32   20   42 1
    33   21   22 1
    34   21   43 1
    35   22   23 ar
    36   22   31 ar
    37   23   24 ar
    38   23   44 1
    39   24   25 ar
    40   25   26 ar
    41   25   31 ar
    42   26   27 1
    43   26   28 ar
    44   27   45 1
    45   27   46 1
    46   28   29 ar
    47   28   48 1
    48   29   30 ar
    49   29   47 1
    50   30   31 ar
@<TRIPOS>SUBSTRUCTURE
     1 ACP         1 GROUP 0 A     ****
@<TRIPOS>MOLECULE
[[5-(6-amino-1,8-dihydropurine-6,8-diylium-7-id-9-yl)-3,4-dihydroxy-tetrahydrofuran-2-yl]methoxy-oxido-phosphoryl]oxy-(phosphonomethyl)phosphinate
   48    50     1     0     0
SMALL
USER_CHARGES

@<TRIPOS>ATOM
      1 PG          6.2073   -4.0293   -4.2847 P.3       1 ACP         1.6558
      2 O1G         4.8679   -4.1504   -4.9470 O.2       1 ACP        -0.9020
      3 O2G         7.4270   -3.6092   -5.2573 O.3       1 ACP        -0.8036
      4 O3G         6.7448   -5.3686   -3.5587 O.3       1 ACP        -0.8036
      5 PB          5.9339   -0.9967   -3.2556 P.3       1 ACP         1.4945
      6 O1B         6.9370   -0.5030   -4.2723 O.co2     1 ACP        -0.8481
      7 O2B         5.7725   -0.3482   -1.9003 O.co2     1 ACP        -0.8481
      8 C3B         6.2800   -2.7911   -2.9705 C.3       1 ACP        -0.6636
      9 PA          3.3317   -0.0541   -4.3262 P.3       1 ACP         1.6023
     10 O1A         2.1115   -0.7775   -4.8538 O.co2     1 ACP        -0.8673
     11 O2A         3.9771    1.0549   -5.1285 O.co2     1 ACP        -0.8673
     12 O3A         4.4753   -1.1630   -3.9655 O.3       1 ACP        -0.8150
     13 O5'         3.0199    0.5139   -2.8245 O.3       1 ACP        -0.5522
     14 C5'         2.2816   -0.2918   -1.9206 C.3       1 ACP         0.2181
     15 C4'         2.7248    0.0226   -0.4980 C.3       1 ACP         0.0915
     16 O4'         2.4697    1.4219   -0.2462 O.3       1 ACP        -0.3675
     17 C3'         1.9404   -0.7419    0.5596 C.3       1 ACP         0.0748
     18 O3'         2.7418   -0.8086    1.7389 O.3       1 ACP        -0.5646
     19 C2'         0.7477    0.1630    0.7858 C.3       1 ACP         0.0804
     20 O2'         0.1373   -0.0577    2.0407 O.3       1 ACP        -0.5882
     21 C1'         1.3733    1.5427    0.6747 C.3       1 ACP         0.3809
     22 N9          0.4520    2.5240    0.1767 N.pl3     1 ACP        -0.4412
     23 C8         -0.3054    2.4845   -1.1576 C.ar      1 ACP         0.1936
     24 N7         -1.0755    3.5806   -1.2691 N.2       1 ACP        -0.2746
     25 C5         -0.8043    4.2306   -0.0942 C.ar      1 ACP        -0.1386
     26 C6         -1.4324    5.5335    0.2646 C.ar      1 ACP         0.4778
     27 N6         -2.2885    6.1054   -0.5675 N.pl3     1 ACP        -0.8290
     28 N1         -1.0537    6.0229    1.4478 N.pl3     1 ACP        -0.6985
     29 C2         -0.1096    5.3242    2.2908 C.ar      1 ACP         0.6179
     30 N3          0.4468    4.1904    1.9960 N.ar      1 ACP        -0.5105
     31 C4          0.0631    3.6855    0.7877 C.ar      1 ACP         0.2753
     32 HOG2        7.6498   -4.1881   -6.0171 H         1 ACP         0.4487
     33 HOG3        6.8776   -6.1791   -4.0949 H         1 ACP         0.4487
     34 H3B1        5.5850   -3.1032   -2.1828 H         1 ACP         0.1088
     35 H3B2        7.2883   -2.8371   -2.5433 H         1 ACP         0.1088
     36 H5'1        1.2154   -0.0780   -2.0455 H         1 ACP         0.0327
     37 H5'2        2.4646   -1.3453   -2.1548 H         1 ACP         0.0327
     38 H4'         3.8046   -0.1390   -0.4011 H         1 ACP         0.1275
     39 H3'         1.6787   -1.7627    0.2719 H         1 ACP         0.0637
     40 HO3'        3.5553   -1.2733    1.4913 H         1 ACP         0.4127
     41 H2'         0.0002   -0.0084   -0.0014 H         1 ACP         0.0692
     42 HO2'       -0.1554   -0.9852    2.0577 H         1 ACP         0.4431
     43 H1'         1.7718    1.9211    1.6015 H         1 ACP         0.1199
     44 H8         -0.2991    1.7413   -1.9611 H         1 ACP         0.2941
     45 HN61       -2.5167    5.6603   -1.4447 H         1 ACP         0.4754
     46 HN62       -2.7159    6.9882   -0.3270 H         1 ACP         0.4754
     47 H2          0.1059    5.8491    3.2340 H         1 ACP         0.0886
     48 H48        -1.4532    6.9099    1.7401 H         1 ACP         0.4707
@<TRIPOS>BOND
     1    1    2 2
     2    1    3 1
     3    1    4 1
     4    1    8 1
     5    3   32 1
     6    4   33 1
     7    5    6 2
     8    5    7 1
     9    5    8 1
    10    5   12 1
    11    8   34 1
    12    8   35 1
    13    9   10 2
    14    9   11 1
    15    9   12 1
    16    9   13 1
    17   13   14 1
    18   14   15 1
    19   14   36 1
    20   14   37 1
    21   15   16 1
    22   15   17 1
    23   15   38 1
    24   16   21 1
    25   17   18 1
    26   17   19 1
    27   17   39 1
    28   18   40 1
    29   19   20 1
    30   19   21 1
    31   19   41 1
    32   20   42 1
    33   21   22 1
    34   21   43 1
    35   22   23 ar
    36   22   31 ar
    37   23   24 ar
    38   23   44 1
    39   24   25 ar
    40   25   26 ar
    41   25   31 ar
    42   26   27 1
    43   26   28 ar
    44   27   45 1
    45   27   46 1
    46   28   29 ar
    47   28   48 1
    48   29   30 ar
    49   29   47 1
    50   30   31 ar
@<TRIPOS>SUBSTRUCTURE
     1 ACP         1 GROUP 0 A     ****
@<TRIPOS>MOLECULE
[[5-(6-amino-1,8-dihydropurine-6,8-diylium-7-id-9-yl)-3,4-dihydroxy-tetrahydrofuran-2-yl]methoxy-oxido-phosphoryl]oxy-(phosphonomethyl)phosphinate
   48    50     1     0     0
SMALL
USER_CHARGES

@<TRIPOS>ATOM
      1 PG         -0.6812    0.2741   -5.3607 P.3       1 ACP         1.6558
      2 O1G        -0.0040    1.5557   -4.9785 O.2       1 ACP        -0.9020
      3 O2G        -1.9546    0.4281   -6.3431 O.3       1 ACP        -0.8036
      4 O3G        -1.2553   -0.6002   -4.1296 O.3       1 ACP        -0.8036
      5 PB          1.9300   -1.5939   -5.5093 P.3       1 ACP         1.4945
      6 O1B         2.8470   -0.4306   -5.2104 O.co2     1 ACP        -0.8481
      7 O2B         2.3550   -2.7537   -6.3799 O.co2     1 ACP        -0.8481
      8 C3B         0.3795   -0.8969   -6.2378 C.3       1 ACP        -0.6636
      9 PA          2.0041   -2.7664   -2.7842 P.3       1 ACP         1.6023
     10 O1A         2.9046   -3.9080   -3.2043 O.co2     1 ACP        -0.8673
     11 O2A         0.9439   -2.9710   -1.7241 O.co2     1 ACP        -0.8673
     12 O3A         1.2886   -2.1536   -4.1184 O.3       1 ACP        -0.8150
     13 O5'         2.9203   -1.4822   -2.3523 O.3       1 ACP        -0.5522
     14 C5'         2.2816   -0.2918   -1.9206 C.3       1 ACP         0.2181
     15 C4'         2.7248    0.0226   -0.4980 C.3       1 ACP         0.0915
     16 O4'         2.4697    1.4219   -0.2462 O.3       1 ACP        -0.3675
     17 C3'         1.9404   -0.7419    0.5596 C.3       1 ACP         0.0748
     18 O3'         2.7418   -0.8086    1.7389 O.3       1 ACP        -0.5646
     19 C2'         0.7477    0.1630    0.7858 C.3       1 ACP         0.0804
     20 O2'         0.1373   -0.0577    2.0407 O.3       1 ACP        -0.5882
     21 C1'         1.3733    1.5427    0.6747 C.3       1 ACP         0.3809
     22 N9          0.4520    2.5240    0.1767 N.pl3     1 ACP        -0.4412
     23 C8          0.1798    2.8712   -1.2933 C.ar      1 ACP         0.1936
     24 N7         -0.7494    3.8400   -1.3610 N.2       1 ACP        -0.2746
     25 C5         -1.0173    4.0603   -0.0358 C.ar      1 ACP        -0.1386
     26 C6         -2.0105    5.0717    0.4241 C.ar      1 ACP         0.4778
     27 N6         -2.6723    5.7982   -0.4628 N.pl3     1 ACP        -0.8290
     28 N1         -2.1445    5.1522    1.7502 N.pl3     1 ACP        -0.6985
     29 C2         -1.3755    4.3143    2.6426 C.ar      1 ACP         0.6179
     30 N3         -0.5075    3.4292    2.2616 N.ar      1 ACP        -0.5105
     31 C4         -0.3667    3.3425    0.9070 C.ar      1 ACP         0.2753
     32 HOG2       -2.7230    0.9597   -6.0449 H         1 ACP         0.4487
     33 HOG3       -1.9314   -0.2038   -3.5399 H         1 ACP         0.4487
     34 H3B1       -0.2352   -1.7637   -6.5059 H         1 ACP         0.1088
     35 H3B2        0.6796   -0.4160   -7.1758 H         1 ACP         0.1088
     36 H5'1        2.5581    0.5234   -2.5967 H         1 ACP         0.0327
     37 H5'2        1.1975   -0.4371   -1.9608 H         1 ACP         0.0327
     38 H4'         3.8046   -0.1390   -0.4011 H         1 ACP         0.1275
     39 H3'         1.6787   -1.7627    0.2719 H         1 ACP         0.0637
     40 HO3'        2.2231   -1.2979    2.3952 H         1 ACP         0.4127
     41 H2'         0.0002   -0.0084   -0.0014 H         1 ACP         0.0692
     42 HO2'       -0.6132    0.5577    2.1063 H         1 ACP         0.4431
     43 H1'         1.7718    1.9211    1.6015 H         1 ACP         0.1199
     44 H8          0.6089    2.4651   -2.2147 H         1 ACP         0.2941
     45 HN61       -2.5055    5.6680   -1.4503 H         1 ACP         0.4754
     46 HN62       -3.3462    6.4841   -0.1542 H         1 ACP         0.4754
     47 H2         -1.5932    4.4937    3.7066 H         1 ACP         0.0886
     48 H48        -2.8098    5.8270    2.1160 H         1 ACP         0.4707
@<TRIPOS>BOND
     1    1    2 2
     2    1    3 1
     3    1    4 1
     4    1    8 1
     5    3   32 1
     6    4   33 1
     7    5    6 2
     8    5    7 1
     9    5    8 1
    10    5   12 1
    11    8   34 1
    12    8   35 1
    13    9   10 2
    14    9   11 1
    15    9   12 1
    16    9   13 1
    17   13   14 1
    18   14   15 1
    19   14   36 1
    20   14   37 1
    21   15   16 1
    22   15   17 1
    23   15   38 1
    24   16   21 1
    25   17   18 1
    26   17   19 1
    27   17   39 1
    28   18   40 1
    29   19   20 1
    30   19   21 1
    31   19   41 1
    32   20   42 1
    33   21   22 1
    34   21   43 1
    35   22   23 ar
    36   22   31 ar
    37   23   24 ar
    38   23   44 1
    39   24   25 ar
    40   25   26 ar
    41   25   31 ar
    42   26   27 1
    43   26   28 ar
    44   27   45 1
    45   27   46 1
    46   28   29 ar
    47   28   48 1
    48   29   30 ar
    49   29   47 1
    50   30   31 ar
@<TRIPOS>SUBSTRUCTURE
     1 ACP         1 GROUP 0 A     ****
@<TRIPOS>MOLECULE
[[5-(6-amino-1,8-dihydropurine-6,8-diylium-7-id-9-yl)-3,4-dihydroxy-tetrahydrofuran-2-yl]methoxy-oxido-phosphoryl]oxy-(phosphonomethyl)phosphinate
   48    50     1     0     0
SMALL
USER_CHARGES

@<TRIPOS>ATOM
      1 PG         -0.7504   -1.4729   -6.1212 P.3       1 ACP         1.6558
      2 O1G        -0.8480   -2.7858   -5.4042 O.2       1 ACP        -0.9020
      3 O2G        -1.0490   -0.1659   -5.2195 O.3       1 ACP        -0.8036
      4 O3G        -1.7426   -1.2975   -7.3839 O.3       1 ACP        -0.8036
      5 PB          2.4149   -1.0149   -5.8037 P.3       1 ACP         1.4945
      6 O1B         3.5580   -0.7153   -6.7455 O.co2     1 ACP        -0.8481
      7 O2B         2.4259   -2.2063   -4.8741 O.co2     1 ACP        -0.8481
      8 C3B         0.8774   -1.1272   -6.8256 C.3       1 ACP        -0.6636
      9 PA          2.9201    1.2533   -3.9581 P.3       1 ACP         1.6023
     10 O1A         2.0202    2.3074   -3.3502 O.co2     1 ACP        -0.8673
     11 O2A         4.1968    1.6466   -4.6690 O.co2     1 ACP        -0.8673
     12 O3A         2.0284    0.3323   -4.9701 O.3       1 ACP        -0.8150
     13 O5'         3.2885    0.1337   -2.8242 O.3       1 ACP        -0.5522
     14 C5'         2.2816   -0.2918   -1.9206 C.3       1 ACP         0.2181
     15 C4'         2.7248    0.0226   -0.4980 C.3       1 ACP         0.0915
     16 O4'         2.4697    1.4219   -0.2462 O.3       1 ACP        -0.3675
     17 C3'         1.9404   -0.7419    0.5596 C.3       1 ACP         0.0748
     18 O3'         2.7418   -0.8086    1.7389 O.3       1 ACP        -0.5646
     19 C2'         0.7477    0.1630    0.7858 C.3       1 ACP         0.0804
     20 O2'         0.1373   -0.0577    2.0407 O.3       1 ACP        -0.5882
     21 C1'         1.3733    1.5427    0.6747 C.3       1 ACP         0.3809
     22 N9          0.4520    2.5240    0.1767 N.pl3     1 ACP        -0.4412
     23 C8         -0.3054    2.4845   -1.1576 C.ar      1 ACP         0.1936
     24 N7         -1.0755    3.5806   -1.2691 N.2       1 ACP        -0.2746
     25 C5         -0.8043    4.2306   -0.0942 C.ar      1 ACP        -0.1386
     26 C6         -1.4324    5.5335    0.2646 C.ar      1 ACP         0.4778
     27 N6         -2.2885    6.1054   -0.5675 N.pl3     1 ACP        -0.8290
     28 N1         -1.0537    6.0229    1.4478 N.pl3     1 ACP        -0.6985
     29 C2         -0.1096    5.3242    2.2908 C.ar      1 ACP         0.6179
     30 N3          0.4468    4.1904    1.9960 N.ar      1 ACP        -0.5105
     31 C4          0.0631    3.6855    0.7877 C.ar      1 ACP         0.2753
     32 HOG2       -1.9261   -0.0755   -4.7898 H         1 ACP         0.4487
     33 HOG3       -2.7109   -1.3563   -7.2391 H         1 ACP         0.4487
     34 H3B1        1.0813   -1.8950   -7.5804 H         1 ACP         0.1088
     35 H3B2        0.8000   -0.1710   -7.3555 H         1 ACP         0.1088
     36 H5'1        1.3501    0.2325   -2.1561 H         1 ACP         0.0327
     37 H5'2        2.1268   -1.3683   -2.0445 H         1 ACP         0.0327
     38 H4'         3.8046   -0.1390   -0.4011 H         1 ACP         0.1275
     39 H3'         1.6787   -1.7627    0.2719 H         1 ACP         0.0637
     40 HO3'        3.5553   -1.2733    1.4913 H         1 ACP         0.4127
     41 H2'         0.0002   -0.0084   -0.0014 H         1 ACP         0.0692
     42 HO2'       -0.1554   -0.9852    2.0577 H         1 ACP         0.4431
     43 H1'         1.7718    1.9211    1.6015 H         1 ACP         0.1199
     44 H8         -0.2991    1.7413   -1.9611 H         1 ACP         0.2941
     45 HN61       -2.5167    5.6603   -1.4447 H         1 ACP         0.4754
     46 HN62       -2.7159    6.9882   -0.3270 H         1 ACP         0.4754
     47 H2          0.1059    5.8491    3.2340 H         1 ACP         0.0886
     48 H48        -1.4532    6.9099    1.7401 H         1 ACP         0.4707
@<TRIPOS>BOND
     1    1    2 2
     2    1    3 1
     3    1    4 1
     4    1    8 1
     5    3   32 1
     6    4   33 1
     7    5    6 2
     8    5    7 1
     9    5    8 1
    10    5   12 1
    11    8   34 1
    12    8   35 1
    13    9   10 2
    14    9   11 1
    15    9   12 1
    16    9   13 1
    17   13   14 1
    18   14   15 1
    19   14   36 1
    20   14   37 1
    21   15   16 1
    22   15   17 1
    23   15   38 1
    24   16   21 1
    25   17   18 1
    26   17   19 1
    27   17   39 1
    28   18   40 1
    29   19   20 1
    30   19   21 1
    31   19   41 1
    32   20   42 1
    33   21   22 1
    34   21   43 1
    35   22   23 ar
    36   22   31 ar
    37   23   24 ar
    38   23   44 1
    39   24   25 ar
    40   25   26 ar
    41   25   31 ar
    42   26   27 1
    43   26   28 ar
    44   27   45 1
    45   27   46 1
    46   28   29 ar
    47   28   48 1
    48   29   30 ar
    49   29   47 1
    50   30   31 ar
@<TRIPOS>SUBSTRUCTURE
     1 ACP         1 GROUP 0 A     ****
@<TRIPOS>MOLECULE
[[5-(6-amino-1,8-dihydropurine-6,8-diylium-7-id-9-yl)-3,4-dihydroxy-tetrahydrofuran-2-yl]methoxy-oxido-phosphoryl]oxy-(phosphonomethyl)phosphinate
   48    50     1     0     0
SMALL
USER_CHARGES

@<TRIPOS>ATOM
      1 PG          4.2323   -3.3983   -7.0044 P.3       1 ACP         1.6558
      2 O1G         2.8199   -2.9306   -7.1883 O.2       1 ACP        -0.9020
      3 O2G         5.3348   -2.6534   -7.9208 O.3       1 ACP        -0.8036
      4 O3G         4.4876   -4.9654   -7.3021 O.3       1 ACP        -0.8036
      5 PB          5.0047   -1.5398   -4.4985 P.3       1 ACP         1.4945
      6 O1B         5.9159   -0.6817   -5.3453 O.co2     1 ACP        -0.8481
      7 O2B         5.2679   -1.7937   -3.0323 O.co2     1 ACP        -0.8481
      8 C3B         4.8754   -3.1874   -5.3289 C.3       1 ACP        -0.6636
      9 PA          2.7380    0.3741   -4.4295 P.3       1 ACP         1.6023
     10 O1A         1.2513    0.2198   -4.6674 O.co2     1 ACP        -0.8673
     11 O2A         3.5254    1.4501   -5.1452 O.co2     1 ACP        -0.8673
     12 O3A         3.4589   -1.0647   -4.7080 O.3       1 ACP        -0.8150
     13 O5'         3.0199    0.5139   -2.8245 O.3       1 ACP        -0.5522
     14 C5'         2.2816   -0.2918   -1.9206 C.3       1 ACP         0.2181
     15 C4'         2.7248    0.0226   -0.4980 C.3       1 ACP         0.0915
     16 O4'         2.4697    1.4219   -0.2462 O.3       1 ACP        -0.3675
     17 C3'         1.9404   -0.7419    0.5596 C.3       1 ACP         0.0748
     18 O3'         2.7418   -0.8086    1.7389 O.3       1 ACP        -0.5646
     19 C2'         0.7477    0.1630    0.7858 C.3       1 ACP         0.0804
     20 O2'         0.1373   -0.0577    2.0407 O.3       1 ACP        -0.5882
     21 C1'         1.3733    1.5427    0.6747 C.3       1 ACP         0.3809
     22 N9          0.4520    2.5240    0.1767 N.pl3     1 ACP        -0.4412
     23 C8         -1.0660    2.5608    0.3999 C.ar      1 ACP         0.1936
     24 N7         -1.5852    3.6333   -0.2221 N.2       1 ACP        -0.2746
     25 C5         -0.4682    4.1996   -0.7771 C.ar      1 ACP        -0.1386
     26 C6         -0.5216    5.4476   -1.5899 C.ar      1 ACP         0.4778
     27 N6         -1.6813    6.0510   -1.7982 N.pl3     1 ACP        -0.8290
     28 N1          0.6621    5.8575   -2.0523 N.pl3     1 ACP        -0.6985
     29 C2          1.8795    5.1301   -1.7717 C.ar      1 ACP         0.6179
     30 N3          1.9458    4.0434   -1.0670 N.ar      1 ACP        -0.5105
     31 C4          0.7388    3.6199   -0.5917 C.ar      1 ACP         0.2753
     32 HOG2        5.2515   -2.7007   -8.8970 H         1 ACP         0.4487
     33 HOG3        4.2926   -5.3170   -8.1968 H         1 ACP         0.4487
     34 H3B1        4.2668   -3.8068   -4.6604 H         1 ACP         0.1088
     35 H3B2        5.8877   -3.6072   -5.3197 H         1 ACP         0.1088
     36 H5'1        1.2154   -0.0780   -2.0455 H         1 ACP         0.0327
     37 H5'2        2.4646   -1.3453   -2.1548 H         1 ACP         0.0327
     38 H4'         3.8046   -0.1390   -0.4011 H         1 ACP         0.1275
     39 H3'         1.6787   -1.7627    0.2719 H         1 ACP         0.0637
     40 HO3'        2.2231   -1.2979    2.3952 H         1 ACP         0.4127
     41 H2'         0.0002   -0.0084   -0.0014 H         1 ACP         0.0692
     42 HO2'       -0.1554   -0.9852    2.0577 H         1 ACP         0.4431
     43 H1'         1.7718    1.9211    1.6015 H         1 ACP         0.1199
     44 H8         -1.7235    1.8833    0.9537 H         1 ACP         0.2941
     45 HN61       -2.5296    5.6672   -1.4072 H         1 ACP         0.4754
     46 HN62       -1.7205    6.8969   -2.3483 H         1 ACP         0.4754
     47 H2          2.7750    5.5878   -2.2190 H         1 ACP         0.0886
     48 H48         0.6808    6.7046   -2.6128 H         1 ACP         0.4707
@<TRIPOS>BOND
     1    1    2 2
     2    1    3 1
     3    1    4 1
     4    1    8 1
     5    3   32 1
     6    4   33 1
     7    5    6 2
     8    5    7 1
     9    5    8 1
    10    5   12 1
    11    8   34 1
    12    8   35 1
    13    9   10 2
    14    9   11 1
    15    9   12 1
    16    9   13 1
    17   13   14 1
    18   14   15 1
    19   14   36 1
    20   14   37 1
    21   15   16 1
    22   15   17 1
    23   15   38 1
    24   16   21 1
    25   17   18 1
    26   17   19 1
    27   17   39 1
    28   18   40 1
    29   19   20 1
    30   19   21 1
    31   19   41 1
    32   20   42 1
    33   21   22 1
    34   21   43 1
    35   22   23 ar
    36   22   31 ar
    37   23   24 ar
    38   23   44 1
    39   24   25 ar
    40   25   26 ar
    41   25   31 ar
    42   26   27 1
    43   26   28 ar
    44   27   45 1
    45   27   46 1
    46   28   29 ar
    47   28   48 1
    48   29   30 ar
    49   29   47 1
    50   30   31 ar
@<TRIPOS>SUBSTRUCTURE
     1 ACP         1 GROUP 0 A     ****
@<TRIPOS>MOLECULE
[[5-(6-amino-1,8-dihydropurine-6,8-diylium-7-id-9-yl)-3,4-dihydroxy-tetrahydrofuran-2-yl]methoxy-oxido-phosphoryl]oxy-(phosphonomethyl)phosphinate
   48    50     1     0     0
SMALL
USER_CHARGES

@<TRIPOS>ATOM
      1 PG          4.5944   -4.1442   -3.9701 P.3       1 ACP         1.6558
      2 O1G         3.3817   -5.0245   -4.0125 O.2       1 ACP        -0.9020
      3 O2G         6.0035   -4.9124   -3.7847 O.3       1 ACP        -0.8036
      4 O3G         4.6071   -3.0386   -2.7923 O.3       1 ACP        -0.8036
      5 PB          3.6212   -1.9264   -6.0829 P.3       1 ACP         1.4945
      6 O1B         2.3395   -2.6762   -6.3632 O.co2     1 ACP        -0.8481
      7 O2B         4.3123   -1.0884   -7.1335 O.co2     1 ACP        -0.8481
      8 C3B         4.8530   -3.1588   -5.4626 C.3       1 ACP        -0.6636
      9 PA          2.7380    0.3741   -4.4295 P.3       1 ACP         1.6023
     10 O1A         1.2513    0.2198   -4.6674 O.co2     1 ACP        -0.8673
     11 O2A         3.5254    1.4501   -5.1452 O.co2     1 ACP        -0.8673
     12 O3A         3.4589   -1.0647   -4.7080 O.3       1 ACP        -0.8150
     13 O5'         3.0199    0.5139   -2.8245 O.3       1 ACP        -0.5522
     14 C5'         2.2816   -0.2918   -1.9206 C.3       1 ACP         0.2181
     15 C4'         2.7248    0.0226   -0.4980 C.3       1 ACP         0.0915
     16 O4'         2.4697    1.4219   -0.2462 O.3       1 ACP        -0.3675
     17 C3'         1.9404   -0.7419    0.5596 C.3       1 ACP         0.0748
     18 O3'         2.7418   -0.8086    1.7389 O.3       1 ACP        -0.5646
     19 C2'         0.7477    0.1630    0.7858 C.3       1 ACP         0.0804
     20 O2'         0.1373   -0.0577    2.0407 O.3       1 ACP        -0.5882
     21 C1'         1.3733    1.5427    0.6747 C.3       1 ACP         0.3809
     22 N9          0.4520    2.5240    0.1767 N.pl3     1 ACP        -0.4412
     23 C8         -1.0660    2.5608    0.3999 C.ar      1 ACP         0.1936
     24 N7         -1.5852    3.6333   -0.2221 N.2       1 ACP        -0.2746
     25 C5         -0.4682    4.1996   -0.7771 C.ar      1 ACP        -0.1386
     26 C6         -0.5216    5.4476   -1.5899 C.ar      1 ACP         0.4778
     27 N6         -1.6813    6.0510   -1.7982 N.pl3     1 ACP        -0.8290
     28 N1          0.6621    5.8575   -2.0523 N.pl3     1 ACP        -0.6985
     29 C2          1.8795    5.1301   -1.7717 C.ar      1 ACP         0.6179
     30 N3          1.9458    4.0434   -1.0670 N.ar      1 ACP        -0.5105
     31 C4          0.7388    3.6199   -0.5917 C.ar      1 ACP         0.2753
     32 HOG2        6.1450   -5.4583   -2.9821 H         1 ACP         0.4487
     33 HOG3        4.5646   -3.3378   -1.8592 H         1 ACP         0.4487
     34 H3B1        5.7875   -2.6012   -5.3333 H         1 ACP         0.1088
     35 H3B2        5.0127   -3.8630   -6.2870 H         1 ACP         0.1088
     36 H5'1        1.2154   -0.0780   -2.0455 H         1 ACP         0.0327
     37 H5'2        2.4646   -1.3453   -2.1548 H         1 ACP         0.0327
     38 H4'         3.8046   -0.1390   -0.4011 H         1 ACP         0.1275
     39 H3'         1.6787   -1.7627    0.2719 H         1 ACP         0.0637
     40 HO3'        2.2231   -1.2979    2.3952 H         1 ACP         0.4127
     41 H2'         0.0002   -0.0084   -0.0014 H         1 ACP         0.0692
     42 HO2'       -0.1554   -0.9852    2.0577 H         1 ACP         0.4431
     43 H1'         1.7718    1.9211    1.6015 H         1 ACP         0.1199
     44 H8         -1.7235    1.8833    0.9537 H         1 ACP         0.2941
     45 HN61       -2.5296    5.6672   -1.4072 H         1 ACP         0.4754
     46 HN62       -1.7205    6.8969   -2.3483 H         1 ACP         0.4754
     47 H2          2.7750    5.5878   -2.2190 H         1 ACP         0.0886
     48 H48         0.6808    6.7046   -2.6128 H         1 ACP         0.4707
@<TRIPOS>BOND
     1    1    2 2
     2    1    3 1
     3    1    4 1
     4    1    8 1
     5    3   32 1
     6    4   33 1
     7    5    6 2
     8    5    7 1
     9    5    8 1
    10    5   12 1
    11    8   34 1
    12    8   35 1
    13    9   10 2
    14    9   11 1
    15    9   12 1
    16    9   13 1
    17   13   14 1
    18   14   15 1
    19   14   36 1
    20   14   37 1
    21   15   16 1
    22   15   17 1
    23   15   38 1
    24   16   21 1
    25   17   18 1
    26   17   19 1
    27   17   39 1
    28   18   40 1
    29   19   20 1
    30   19   21 1
    31   19   41 1
    32   20   42 1
    33   21   22 1
    34   21   43 1
    35   22   23 ar
    36   22   31 ar
    37   23   24 ar
    38   23   44 1
    39   24   25 ar
    40   25   26 ar
    41   25   31 ar
    42   26   27 1
    43   26   28 ar
    44   27   45 1
    45   27   46 1
    46   28   29 ar
    47   28   48 1
    48   29   30 ar
    49   29   47 1
    50   30   31 ar
@<TRIPOS>SUBSTRUCTURE
     1 ACP         1 GROUP 0 A     ****
@<TRIPOS>MOLECULE
[[5-(6-amino-1,8-dihydropurine-6,8-diylium-7-id-9-yl)-3,4-dihydroxy-tetrahydrofuran-2-yl]methoxy-oxido-phosphoryl]oxy-(phosphonomethyl)phosphinate
   48    50     1     0     0
SMALL
USER_CHARGES

@<TRIPOS>ATOM
      1 PG          4.2959    1.5682   -5.5834 P.3       1 ACP         1.6558
      2 O1G         2.7976    1.5216   -5.5908 O.2       1 ACP        -0.9020
      3 O2G         4.9648    2.1758   -4.2441 O.3       1 ACP        -0.8036
      4 O3G         4.9681    2.4344   -6.7698 O.3       1 ACP        -0.8036
      5 PB          4.8394   -1.4237   -4.5425 P.3       1 ACP         1.4945
      6 O1B         5.3045   -0.9286   -3.1926 O.co2     1 ACP        -0.8481
      7 O2B         5.3889   -2.6818   -5.1739 O.co2     1 ACP        -0.8481
      8 C3B         5.0929   -0.0452   -5.7492 C.3       1 ACP        -0.6636
      9 PA          2.1358   -2.2685   -3.6578 P.3       1 ACP         1.6023
     10 O1A         2.4845   -3.7405   -3.7033 O.co2     1 ACP        -0.8673
     11 O2A         0.7432   -1.7950   -4.0135 O.co2     1 ACP        -0.8673
     12 O3A         3.2094   -1.4534   -4.5800 O.3       1 ACP        -0.8150
     13 O5'         2.5238   -1.6632   -2.1888 O.3       1 ACP        -0.5522
     14 C5'         2.2816   -0.2918   -1.9206 C.3       1 ACP         0.2181
     15 C4'         2.7248    0.0226   -0.4980 C.3       1 ACP         0.0915
     16 O4'         2.4697    1.4219   -0.2462 O.3       1 ACP        -0.3675
     17 C3'         1.9404   -0.7419    0.5596 C.3       1 ACP         0.0748
     18 O3'         2.7418   -0.8086    1.7389 O.3       1 ACP        -0.5646
     19 C2'         0.7477    0.1630    0.7858 C.3       1 ACP         0.0804
     20 O2'         0.1373   -0.0577    2.0407 O.3       1 ACP        -0.5882
     21 C1'         1.3733    1.5427    0.6747 C.3       1 ACP         0.3809
     22 N9          0.4520    2.5240    0.1767 N.pl3     1 ACP        -0.4412
     23 C8         -1.0660    2.5608    0.3999 C.ar      1 ACP         0.1936
     24 N7         -1.5852    3.6333   -0.2221 N.2       1 ACP        -0.2746
     25 C5         -0.4682    4.1996   -0.7771 C.ar      1 ACP        -0.1386
     26 C6         -0.5216    5.4476   -1.5899 C.ar      1 ACP         0.4778
     27 N6         -1.6813    6.0510   -1.7982 N.pl3     1 ACP        -0.8290
     28 N1          0.6621    5.8575   -2.0523 N.pl3     1 ACP        -0.6985
     29 C2          1.8795    5.1301   -1.7717 C.ar      1 ACP         0.6179
     30 N3          1.9458    4.0434   -1.0670 N.ar      1 ACP        -0.5105
     31 C4          0.7388    3.6199   -0.5917 C.ar      1 ACP         0.2753
     32 HOG2        4.7513    3.0966   -3.9822 H         1 ACP         0.4487
     33 HOG3        4.7549    3.3892   -6.8404 H         1 ACP         0.4487
     34 H3B1        4.8122   -0.4542   -6.7264 H         1 ACP         0.1088
     35 H3B2        6.1739    0.1335   -5.7765 H         1 ACP         0.1088
     36 H5'1        2.8430    0.3138   -2.6391 H         1 ACP         0.0327
     37 H5'2        1.2126   -0.0907   -2.0421 H         1 ACP         0.0327
     38 H4'         3.8046   -0.1390   -0.4011 H         1 ACP         0.1275
     39 H3'         1.6787   -1.7627    0.2719 H         1 ACP         0.0637
     40 HO3'        2.2231   -1.2979    2.3952 H         1 ACP         0.4127
     41 H2'         0.0002   -0.0084   -0.0014 H         1 ACP         0.0692
     42 HO2'       -0.1554   -0.9852    2.0577 H         1 ACP         0.4431
     43 H1'         1.7718    1.9211    1.6015 H         1 ACP         0.1199
     44 H8         -1.7235    1.8833    0.9537 H         1 ACP         0.2941
     45 HN61       -2.5296    5.6672   -1.4072 H         1 ACP         0.4754
     46 HN62       -1.7205    6.8969   -2.3483 H         1 ACP         0.4754
     47 H2          2.7750    5.5878   -2.2190 H         1 ACP         0.0886
     48 H48         0.6808    6.7046   -2.6128 H         1 ACP         0.4707
@<TRIPOS>BOND
     1    1    2 2
     2    1    3 1
     3    1    4 1
     4    1    8 1
     5    3   32 1
     6    4   33 1
     7    5    6 2
     8    5    7 1
     9    5    8 1
    10    5   12 1
    11    8   34 1
    12    8   35 1
    13    9   10 2
    14    9   11 1
    15    9   12 1
    16    9   13 1
    17   13   14 1
    18   14   15 1
    19   14   36 1
    20   14   37 1
    21   15   16 1
    22   15   17 1
    23   15   38 1
    24   16   21 1
    25   17   18 1
    26   17   19 1
    27   17   39 1
    28   18   40 1
    29   19   20 1
    30   19   21 1
    31   19   41 1
    32   20   42 1
    33   21   22 1
    34   21   43 1
    35   22   23 ar
    36   22   31 ar
    37   23   24 ar
    38   23   44 1
    39   24   25 ar
    40   25   26 ar
    41   25   31 ar
    42   26   27 1
    43   26   28 ar
    44   27   45 1
    45   27   46 1
    46   28   29 ar
    47   28   48 1
    48   29   30 ar
    49   29   47 1
    50   30   31 ar
@<TRIPOS>SUBSTRUCTURE
     1 ACP         1 GROUP 0 A     ****
@<TRIPOS>MOLECULE
[[5-(6-amino-1,8-dihydropurine-6,8-diylium-7-id-9-yl)-3,4-dihydroxy-tetrahydrofuran-2-yl]methoxy-oxido-phosphoryl]oxy-(phosphonomethyl)phosphinate
   48    50     1     0     0
SMALL
USER_CHARGES

@<TRIPOS>ATOM
      1 PG          1.4849   -2.4712   -7.7443 P.3       1 ACP         1.6558
      2 O1G         2.4614   -2.0782   -8.8118 O.2       1 ACP        -0.9020
      3 O2G         0.4295   -3.6221   -8.1588 O.3       1 ACP        -0.8036
      4 O3G         0.5472   -1.2783   -7.1899 O.3       1 ACP        -0.8036
      5 PB          3.4336   -2.1594   -5.2075 P.3       1 ACP         1.4945
      6 O1B         4.6123   -1.8099   -6.0862 O.co2     1 ACP        -0.8481
      7 O2B         3.5937   -2.8956   -3.8975 O.co2     1 ACP        -0.8481
      8 C3B         2.2460   -3.1283   -6.2428 C.3       1 ACP        -0.6636
      9 PA          2.8587    0.6155   -4.3269 P.3       1 ACP         1.6023
     10 O1A         1.5848    1.4289   -4.2490 O.co2     1 ACP        -0.8673
     11 O2A         4.0862    1.1698   -5.0168 O.co2     1 ACP        -0.8673
     12 O3A         2.5065   -0.8361   -4.9876 O.3       1 ACP        -0.8150
     13 O5'         3.2885    0.1337   -2.8242 O.3       1 ACP        -0.5522
     14 C5'         2.2816   -0.2918   -1.9206 C.3       1 ACP         0.2181
     15 C4'         2.7248    0.0226   -0.4980 C.3       1 ACP         0.0915
     16 O4'         2.4697    1.4219   -0.2462 O.3       1 ACP        -0.3675
     17 C3'         1.9404   -0.7419    0.5596 C.3       1 ACP         0.0748
     18 O3'         2.7418   -0.8086    1.7389 O.3       1 ACP        -0.5646
     19 C2'         0.7477    0.1630    0.7858 C.3       1 ACP         0.0804
     20 O2'         0.1373   -0.0577    2.0407 O.3       1 ACP        -0.5882
     21 C1'         1.3733    1.5427    0.6747 C.3       1 ACP         0.3809
     22 N9          0.4520    2.5240    0.1767 N.pl3     1 ACP        -0.4412
     23 C8         -0.3054    2.4845   -1.1576 C.ar      1 ACP         0.1936
     24 N7         -1.0755    3.5806   -1.2691 N.2       1 ACP        -0.2746
     25 C5         -0.8043    4.2306   -0.0942 C.ar      1 ACP        -0.1386
     26 C6         -1.4324    5.5335    0.2646 C.ar      1 ACP         0.4778
     27 N6         -2.2885    6.1054   -0.5675 N.pl3     1 ACP        -0.8290
     28 N1         -1.0537    6.0229    1.4478 N.pl3     1 ACP        -0.6985
     29 C2         -0.1096    5.3242    2.2908 C.ar      1 ACP         0.6179
     30 N3          0.4468    4.1904    1.9960 N.ar      1 ACP        -0.5105
     31 C4          0.0631    3.6855    0.7877 C.ar      1 ACP         0.2753
     32 HOG2       -0.1774   -3.4610   -8.9123 H         1 ACP         0.4487
     33 HOG3       -0.0440   -0.8086   -7.8159 H         1 ACP         0.4487
     34 H3B1        1.4380   -3.4244   -5.5644 H         1 ACP         0.1088
     35 H3B2        2.7759   -4.0445   -6.5275 H         1 ACP         0.1088
     36 H5'1        1.3501    0.2325   -2.1561 H         1 ACP         0.0327
     37 H5'2        2.1268   -1.3683   -2.0445 H         1 ACP         0.0327
     38 H4'         3.8046   -0.1390   -0.4011 H         1 ACP         0.1275
     39 H3'         1.6787   -1.7627    0.2719 H         1 ACP         0.0637
     40 HO3'        2.2231   -1.2979    2.3952 H         1 ACP         0.4127
     41 H2'         0.0002   -0.0084   -0.0014 H         1 ACP         0.0692
     42 HO2'       -0.6132    0.5577    2.1063 H         1 ACP         0.4431
     43 H1'         1.7718    1.9211    1.6015 H         1 ACP         0.1199
     44 H8         -0.2991    1.7413   -1.9611 H         1 ACP         0.2941
     45 HN61       -2.5167    5.6603   -1.4447 H         1 ACP         0.4754
     46 HN62       -2.7159    6.9882   -0.3270 H         1 ACP         0.4754
     47 H2          0.1059    5.8491    3.2340 H         1 ACP         0.0886
     48 H48        -1.4532    6.9099    1.7401 H         1 ACP         0.4707
@<TRIPOS>BOND
     1    1    2 2
     2    1    3 1
     3    1    4 1
     4    1    8 1
     5    3   32 1
     6    4   33 1
     7    5    6 2
     8    5    7 1
     9    5    8 1
    10    5   12 1
    11    8   34 1
    12    8   35 1
    13    9   10 2
    14    9   11 1
    15    9   12 1
    16    9   13 1
    17   13   14 1
    18   14   15 1
    19   14   36 1
    20   14   37 1
    21   15   16 1
    22   15   17 1
    23   15   38 1
    24   16   21 1
    25   17   18 1
    26   17   19 1
    27   17   39 1
    28   18   40 1
    29   19   20 1
    30   19   21 1
    31   19   41 1
    32   20   42 1
    33   21   22 1
    34   21   43 1
    35   22   23 ar
    36   22   31 ar
    37   23   24 ar
    38   23   44 1
    39   24   25 ar
    40   25   26 ar
    41   25   31 ar
    42   26   27 1
    43   26   28 ar
    44   27   45 1
    45   27   46 1
    46   28   29 ar
    47   28   48 1
    48   29   30 ar
    49   29   47 1
    50   30   31 ar
@<TRIPOS>SUBSTRUCTURE
     1 ACP         1 GROUP 0 A     ****
@<TRIPOS>MOLECULE
[[5-(6-amino-1,8-dihydropurine-6,8-diylium-7-id-9-yl)-3,4-dihydroxy-tetrahydrofuran-2-yl]methoxy-oxido-phosphoryl]oxy-(phosphonomethyl)phosphinate
   48    50     1     0     0
SMALL
USER_CHARGES

@<TRIPOS>ATOM
      1 PG          6.7686   -2.7065   -0.1114 P.3       1 ACP         1.6558
      2 O1G         6.9338   -3.1121    1.3223 O.2       1 ACP        -0.9020
      3 O2G         8.1204   -2.7179   -0.9960 O.3       1 ACP        -0.8036
      4 O3G         6.1730   -1.2236   -0.3477 O.3       1 ACP        -0.8036
      5 PB          5.2667   -3.4746   -2.8472 P.3       1 ACP         1.4945
      6 O1B         4.2961   -4.5506   -3.2757 O.co2     1 ACP        -0.8481
      7 O2B         6.5823   -3.2459   -3.5547 O.co2     1 ACP        -0.8481
      8 C3B         5.6445   -3.7574   -1.0588 C.3       1 ACP        -0.6636
      9 PA          3.9981   -0.9679   -3.8029 P.3       1 ACP         1.6023
     10 O1A         2.9471   -1.6100   -4.6826 O.co2     1 ACP        -0.8673
     11 O2A         5.2319   -0.3374   -4.4112 O.co2     1 ACP        -0.8673
     12 O3A         4.4739   -2.0589   -2.6844 O.3       1 ACP        -0.8150
     13 O5'         3.2885    0.1337   -2.8242 O.3       1 ACP        -0.5522
     14 C5'         2.2816   -0.2918   -1.9206 C.3       1 ACP         0.2181
     15 C4'         2.7248    0.0226   -0.4980 C.3       1 ACP         0.0915
     16 O4'         2.4697    1.4219   -0.2462 O.3       1 ACP        -0.3675
     17 C3'         1.9404   -0.7419    0.5596 C.3       1 ACP         0.0748
     18 O3'         2.7418   -0.8086    1.7389 O.3       1 ACP        -0.5646
     19 C2'         0.7477    0.1630    0.7858 C.3       1 ACP         0.0804
     20 O2'         0.1373   -0.0577    2.0407 O.3       1 ACP        -0.5882
     21 C1'         1.3733    1.5427    0.6747 C.3       1 ACP         0.3809
     22 N9          0.4520    2.5240    0.1767 N.pl3     1 ACP        -0.4412
     23 C8         -0.3054    2.4845   -1.1576 C.ar      1 ACP         0.1936
     24 N7         -1.0755    3.5806   -1.2691 N.2       1 ACP        -0.2746
     25 C5         -0.8043    4.2306   -0.0942 C.ar      1 ACP        -0.1386
     26 C6         -1.4324    5.5335    0.2646 C.ar      1 ACP         0.4778
     27 N6         -2.2885    6.1054   -0.5675 N.pl3     1 ACP        -0.8290
     28 N1         -1.0537    6.0229    1.4478 N.pl3     1 ACP        -0.6985
     29 C2         -0.1096    5.3242    2.2908 C.ar      1 ACP         0.6179
     30 N3          0.4468    4.1904    1.9960 N.ar      1 ACP        -0.5105
     31 C4          0.0631    3.6855    0.7877 C.ar      1 ACP         0.2753
     32 HOG2        8.8685   -2.1431   -0.7278 H         1 ACP         0.4487
     33 HOG3        6.6646   -0.4521    0.0061 H         1 ACP         0.4487
     34 H3B1        6.0204   -4.7849   -0.9964 H         1 ACP         0.1088
     35 H3B2        4.6780   -3.7390   -0.5424 H         1 ACP         0.1088
     36 H5'1        1.3501    0.2325   -2.1561 H         1 ACP         0.0327
     37 H5'2        2.1268   -1.3683   -2.0445 H         1 ACP         0.0327
     38 H4'         3.8046   -0.1390   -0.4011 H         1 ACP         0.1275
     39 H3'         1.6787   -1.7627    0.2719 H         1 ACP         0.0637
     40 HO3'        3.5553   -1.2733    1.4913 H         1 ACP         0.4127
     41 H2'         0.0002   -0.0084   -0.0014 H         1 ACP         0.0692
     42 HO2'       -0.6132    0.5577    2.1063 H         1 ACP         0.4431
     43 H1'         1.7718    1.9211    1.6015 H         1 ACP         0.1199
     44 H8         -0.2991    1.7413   -1.9611 H         1 ACP         0.2941
     45 HN61       -2.5167    5.6603   -1.4447 H         1 ACP         0.4754
     46 HN62       -2.7159    6.9882   -0.3270 H         1 ACP         0.4754
     47 H2          0.1059    5.8491    3.2340 H         1 ACP         0.0886
     48 H48        -1.4532    6.9099    1.7401 H         1 ACP         0.4707
@<TRIPOS>BOND
     1    1    2 2
     2    1    3 1
     3    1    4 1
     4    1    8 1
     5    3   32 1
     6    4   33 1
     7    5    6 2
     8    5    7 1
     9    5    8 1
    10    5   12 1
    11    8   34 1
    12    8   35 1
    13    9   10 2
    14    9   11 1
    15    9   12 1
    16    9   13 1
    17   13   14 1
    18   14   15 1
    19   14   36 1
    20   14   37 1
    21   15   16 1
    22   15   17 1
    23   15   38 1
    24   16   21 1
    25   17   18 1
    26   17   19 1
    27   17   39 1
    28   18   40 1
    29   19   20 1
    30   19   21 1
    31   19   41 1
    32   20   42 1
    33   21   22 1
    34   21   43 1
    35   22   23 ar
    36   22   31 ar
    37   23   24 ar
    38   23   44 1
    39   24   25 ar
    40   25   26 ar
    41   25   31 ar
    42   26   27 1
    43   26   28 ar
    44   27   45 1
    45   27   46 1
    46   28   29 ar
    47   28   48 1
    48   29   30 ar
    49   29   47 1
    50   30   31 ar
@<TRIPOS>SUBSTRUCTURE
     1 ACP         1 GROUP 0 A     ****
@<TRIPOS>MOLECULE
[[5-(6-amino-1,8-dihydropurine-6,8-diylium-7-id-9-yl)-3,4-dihydroxy-tetrahydrofuran-2-yl]methoxy-oxido-phosphoryl]oxy-(phosphonomethyl)phosphinate
   48    50     1     0     0
SMALL
USER_CHARGES

@<TRIPOS>ATOM
      1 PG         -2.7711   -1.0766   -3.3652 P.3       1 ACP         1.6558
      2 O1G        -3.0210   -0.4291   -2.0364 O.2       1 ACP        -0.9020
      3 O2G        -1.7394   -0.2972   -4.3338 O.3       1 ACP        -0.8036
      4 O3G        -4.0782   -1.2841   -4.2915 O.3       1 ACP        -0.8036
      5 PB         -0.4463   -3.1009   -2.4554 P.3       1 ACP         1.4945
      6 O1B        -0.2085   -4.5884   -2.5740 O.co2     1 ACP        -0.8481
      7 O2B        -0.4371   -2.3855   -1.1243 O.co2     1 ACP        -0.8481
      8 C3B        -2.0697   -2.7389   -3.2645 C.3       1 ACP        -0.6636
      9 PA          2.1358   -2.2685   -3.6578 P.3       1 ACP         1.6023
     10 O1A         2.4970   -1.2612   -4.7281 O.co2     1 ACP        -0.8673
     11 O2A         2.6457   -3.6911   -3.7347 O.co2     1 ACP        -0.8673
     12 O3A         0.5094   -2.3101   -3.5139 O.3       1 ACP        -0.8150
     13 O5'         2.5238   -1.6632   -2.1888 O.3       1 ACP        -0.5522
     14 C5'         2.2816   -0.2918   -1.9206 C.3       1 ACP         0.2181
     15 C4'         2.7248    0.0226   -0.4980 C.3       1 ACP         0.0915
     16 O4'         2.4697    1.4219   -0.2462 O.3       1 ACP        -0.3675
     17 C3'         1.9404   -0.7419    0.5596 C.3       1 ACP         0.0748
     18 O3'         2.7418   -0.8086    1.7389 O.3       1 ACP        -0.5646
     19 C2'         0.7477    0.1630    0.7858 C.3       1 ACP         0.0804
     20 O2'         0.1373   -0.0577    2.0407 O.3       1 ACP        -0.5882
     21 C1'         1.3733    1.5427    0.6747 C.3       1 ACP         0.3809
     22 N9          0.4520    2.5240    0.1767 N.pl3     1 ACP        -0.4412
     23 C8         -1.0660    2.5608    0.3999 C.ar      1 ACP         0.1936
     24 N7         -1.5852    3.6333   -0.2221 N.2       1 ACP        -0.2746
     25 C5         -0.4682    4.1996   -0.7771 C.ar      1 ACP        -0.1386
     26 C6         -0.5216    5.4476   -1.5899 C.ar      1 ACP         0.4778
     27 N6         -1.6813    6.0510   -1.7982 N.pl3     1 ACP        -0.8290
     28 N1          0.6621    5.8575   -2.0523 N.pl3     1 ACP        -0.6985
     29 C2          1.8795    5.1301   -1.7717 C.ar      1 ACP         0.6179
     30 N3          1.9458    4.0434   -1.0670 N.ar      1 ACP        -0.5105
     31 C4          0.7388    3.6199   -0.5917 C.ar      1 ACP         0.2753
     32 HOG2       -1.9498    0.6192   -4.6130 H         1 ACP         0.4487
     33 HOG3       -4.5966   -0.4976   -4.5649 H         1 ACP         0.4487
     34 H3B1       -2.8010   -3.3764   -2.7550 H         1 ACP         0.1088
     35 H3B2       -1.9817   -3.1116   -4.2914 H         1 ACP         0.1088
     36 H5'1        2.8430    0.3138   -2.6391 H         1 ACP         0.0327
     37 H5'2        1.2126   -0.0907   -2.0421 H         1 ACP         0.0327
     38 H4'         3.8046   -0.1390   -0.4011 H         1 ACP         0.1275
     39 H3'         1.6787   -1.7627    0.2719 H         1 ACP         0.0637
     40 HO3'        2.2231   -1.2979    2.3952 H         1 ACP         0.4127
     41 H2'         0.0002   -0.0084   -0.0014 H         1 ACP         0.0692
     42 HO2'       -0.1554   -0.9852    2.0577 H         1 ACP         0.4431
     43 H1'         1.7718    1.9211    1.6015 H         1 ACP         0.1199
     44 H8         -1.7235    1.8833    0.9537 H         1 ACP         0.2941
     45 HN61       -2.5296    5.6672   -1.4072 H         1 ACP         0.4754
     46 HN62       -1.7205    6.8969   -2.3483 H         1 ACP         0.4754
     47 H2          2.7750    5.5878   -2.2190 H         1 ACP         0.0886
     48 H48         0.6808    6.7046   -2.6128 H         1 ACP         0.4707
@<TRIPOS>BOND
     1    1    2 2
     2    1    3 1
     3    1    4 1
     4    1    8 1
     5    3   32 1
     6    4   33 1
     7    5    6 2
     8    5    7 1
     9    5    8 1
    10    5   12 1
    11    8   34 1
    12    8   35 1
    13    9   10 2
    14    9   11 1
    15    9   12 1
    16    9   13 1
    17   13   14 1
    18   14   15 1
    19   14   36 1
    20   14   37 1
    21   15   16 1
    22   15   17 1
    23   15   38 1
    24   16   21 1
    25   17   18 1
    26   17   19 1
    27   17   39 1
    28   18   40 1
    29   19   20 1
    30   19   21 1
    31   19   41 1
    32   20   42 1
    33   21   22 1
    34   21   43 1
    35   22   23 ar
    36   22   31 ar
    37   23   24 ar
    38   23   44 1
    39   24   25 ar
    40   25   26 ar
    41   25   31 ar
    42   26   27 1
    43   26   28 ar
    44   27   45 1
    45   27   46 1
    46   28   29 ar
    47   28   48 1
    48   29   30 ar
    49   29   47 1
    50   30   31 ar
@<TRIPOS>SUBSTRUCTURE
     1 ACP         1 GROUP 0 A     ****
@<TRIPOS>MOLECULE
[[5-(6-amino-1,8-dihydropurine-6,8-diylium-7-id-9-yl)-3,4-dihydroxy-tetrahydrofuran-2-yl]methoxy-oxido-phosphoryl]oxy-(phosphonomethyl)phosphinate
   48    50     1     0     0
SMALL
USER_CHARGES

@<TRIPOS>ATOM
      1 PG          4.7153   -0.2840   -7.3100 P.3       1 ACP         1.6558
      2 O1G         5.3239   -1.4333   -8.0556 O.2       1 ACP        -0.9020
      3 O2G         4.5355    1.0778   -8.1606 O.3       1 ACP        -0.8036
      4 O3G         5.5224    0.1940   -5.9948 O.3       1 ACP        -0.8036
      5 PB          2.6691   -1.9587   -5.4829 P.3       1 ACP         1.4945
      6 O1B         3.0593   -3.2610   -6.1428 O.co2     1 ACP        -0.8481
      7 O2B         1.2775   -1.7096   -4.9491 O.co2     1 ACP        -0.8481
      8 C3B         3.0518   -0.6013   -6.6795 C.3       1 ACP        -0.6636
      9 PA          3.9659   -2.1095   -2.8180 P.3       1 ACP         1.6023
     10 O1A         5.0701   -1.3086   -2.1624 O.co2     1 ACP        -0.8673
     11 O2A         4.0235   -3.6214   -2.8472 O.co2     1 ACP        -0.8673
     12 O3A         3.7737   -1.5707   -4.3478 O.3       1 ACP        -0.8150
     13 O5'         2.5238   -1.6632   -2.1888 O.3       1 ACP        -0.5522
     14 C5'         2.2816   -0.2918   -1.9206 C.3       1 ACP         0.2181
     15 C4'         2.7248    0.0226   -0.4980 C.3       1 ACP         0.0915
     16 O4'         2.4697    1.4219   -0.2462 O.3       1 ACP        -0.3675
     17 C3'         1.9404   -0.7419    0.5596 C.3       1 ACP         0.0748
     18 O3'         2.7418   -0.8086    1.7389 O.3       1 ACP        -0.5646
     19 C2'         0.7477    0.1630    0.7858 C.3       1 ACP         0.0804
     20 O2'         0.1373   -0.0577    2.0407 O.3       1 ACP        -0.5882
     21 C1'         1.3733    1.5427    0.6747 C.3       1 ACP         0.3809
     22 N9          0.4520    2.5240    0.1767 N.pl3     1 ACP        -0.4412
     23 C8          0.1798    2.8712   -1.2933 C.ar      1 ACP         0.1936
     24 N7         -0.7494    3.8400   -1.3610 N.2       1 ACP        -0.2746
     25 C5         -1.0173    4.0603   -0.0358 C.ar      1 ACP        -0.1386
     26 C6         -2.0105    5.0717    0.4241 C.ar      1 ACP         0.4778
     27 N6         -2.6723    5.7982   -0.4628 N.pl3     1 ACP        -0.8290
     28 N1         -2.1445    5.1522    1.7502 N.pl3     1 ACP        -0.6985
     29 C2         -1.3755    4.3143    2.6426 C.ar      1 ACP         0.6179
     30 N3         -0.5075    3.4292    2.2616 N.ar      1 ACP        -0.5105
     31 C4         -0.3667    3.3425    0.9070 C.ar      1 ACP         0.2753
     32 HOG2        5.3299    1.5074   -8.5431 H         1 ACP         0.4487
     33 HOG3        6.4468    0.5070   -6.0922 H         1 ACP         0.4487
     34 H3B1        2.6971    0.3196   -6.2030 H         1 ACP         0.1088
     35 H3B2        2.4087   -0.7791   -7.5490 H         1 ACP         0.1088
     36 H5'1        2.8430    0.3138   -2.6391 H         1 ACP         0.0327
     37 H5'2        1.2126   -0.0907   -2.0421 H         1 ACP         0.0327
     38 H4'         3.8046   -0.1390   -0.4011 H         1 ACP         0.1275
     39 H3'         1.6787   -1.7627    0.2719 H         1 ACP         0.0637
     40 HO3'        2.2231   -1.2979    2.3952 H         1 ACP         0.4127
     41 H2'         0.0002   -0.0084   -0.0014 H         1 ACP         0.0692
     42 HO2'       -0.1554   -0.9852    2.0577 H         1 ACP         0.4431
     43 H1'         1.7718    1.9211    1.6015 H         1 ACP         0.1199
     44 H8          0.6089    2.4651   -2.2147 H         1 ACP         0.2941
     45 HN61       -2.5055    5.6680   -1.4503 H         1 ACP         0.4754
     46 HN62       -3.3462    6.4841   -0.1542 H         1 ACP         0.4754
     47 H2         -1.5932    4.4937    3.7066 H         1 ACP         0.0886
     48 H48        -2.8098    5.8270    2.1160 H         1 ACP         0.4707
@<TRIPOS>BOND
     1    1    2 2
     2    1    3 1
     3    1    4 1
     4    1    8 1
     5    3   32 1
     6    4   33 1
     7    5    6 2
     8    5    7 1
     9    5    8 1
    10    5   12 1
    11    8   34 1
    12    8   35 1
    13    9   10 2
    14    9   11 1
    15    9   12 1
    16    9   13 1
    17   13   14 1
    18   14   15 1
    19   14   36 1
    20   14   37 1
    21   15   16 1
    22   15   17 1
    23   15   38 1
    24   16   21 1
    25   17   18 1
    26   17   19 1
    27   17   39 1
    28   18   40 1
    29   19   20 1
    30   19   21 1
    31   19   41 1
    32   20   42 1
    33   21   22 1
    34   21   43 1
    35   22   23 ar
    36   22   31 ar
    37   23   24 ar
    38   23   44 1
    39   24   25 ar
    40   25   26 ar
    41   25   31 ar
    42   26   27 1
    43   26   28 ar
    44   27   45 1
    45   27   46 1
    46   28   29 ar
    47   28   48 1
    48   29   30 ar
    49   29   47 1
    50   30   31 ar
@<TRIPOS>SUBSTRUCTURE
     1 ACP         1 GROUP 0 A     ****
@<TRIPOS>MOLECULE
[[5-(6-amino-1,8-dihydropurine-6,8-diylium-7-id-9-yl)-3,4-dihydroxy-tetrahydrofuran-2-yl]methoxy-oxido-phosphoryl]oxy-(phosphonomethyl)phosphinate
   48    50     1     0     0
SMALL
USER_CHARGES

@<TRIPOS>ATOM
      1 PG          6.1169    0.8322   -5.4516 P.3       1 ACP         1.6558
      2 O1G         6.8780    2.1176   -5.5776 O.2       1 ACP        -0.9020
      3 O2G         5.6943    0.4205   -3.9476 O.3       1 ACP        -0.8036
      4 O3G         6.8780   -0.4809   -6.0048 O.3       1 ACP        -0.8036
      5 PB          3.4165   -0.6593   -6.3536 P.3       1 ACP         1.4945
      6 O1B         4.1877   -1.8171   -6.9437 O.co2     1 ACP        -0.8481
      7 O2B         2.0907   -0.2019   -6.9164 O.co2     1 ACP        -0.8481
      8 C3B         4.5465    0.8049   -6.3454 C.3       1 ACP        -0.6636
      9 PA          2.6171   -2.0488   -3.8563 P.3       1 ACP         1.6023
     10 O1A         3.4076   -3.3191   -4.0840 O.co2     1 ACP        -0.8673
     11 O2A         1.1208   -2.0213   -4.0811 O.co2     1 ACP        -0.8673
     12 O3A         3.2937   -0.8528   -4.7390 O.3       1 ACP        -0.8150
     13 O5'         2.9203   -1.4822   -2.3523 O.3       1 ACP        -0.5522
     14 C5'         2.2816   -0.2918   -1.9206 C.3       1 ACP         0.2181
     15 C4'         2.7248    0.0226   -0.4980 C.3       1 ACP         0.0915
     16 O4'         2.4697    1.4219   -0.2462 O.3       1 ACP        -0.3675
     17 C3'         1.9404   -0.7419    0.5596 C.3       1 ACP         0.0748
     18 O3'         2.7418   -0.8086    1.7389 O.3       1 ACP        -0.5646
     19 C2'         0.7477    0.1630    0.7858 C.3       1 ACP         0.0804
     20 O2'         0.1373   -0.0577    2.0407 O.3       1 ACP        -0.5882
     21 C1'         1.3733    1.5427    0.6747 C.3       1 ACP         0.3809
     22 N9          0.4520    2.5240    0.1767 N.pl3     1 ACP        -0.4412
     23 C8         -0.3054    2.4845   -1.1576 C.ar      1 ACP         0.1936
     24 N7         -1.0755    3.5806   -1.2691 N.2       1 ACP        -0.2746
     25 C5         -0.8043    4.2306   -0.0942 C.ar      1 ACP        -0.1386
     26 C6         -1.4324    5.5335    0.2646 C.ar      1 ACP         0.4778
     27 N6         -2.2885    6.1054   -0.5675 N.pl3     1 ACP        -0.8290
     28 N1         -1.0537    6.0229    1.4478 N.pl3     1 ACP        -0.6985
     29 C2         -0.1096    5.3242    2.2908 C.ar      1 ACP         0.6179
     30 N3          0.4468    4.1904    1.9960 N.ar      1 ACP        -0.5105
     31 C4          0.0631    3.6855    0.7877 C.ar      1 ACP         0.2753
     32 HOG2        6.3971    0.2839   -3.2772 H         1 ACP         0.4487
     33 HOG3        7.7368   -0.7359   -5.6054 H         1 ACP         0.4487
     34 H3B1        3.9416    1.6413   -5.9774 H         1 ACP         0.1088
     35 H3B2        4.7735    1.0134   -7.3971 H         1 ACP         0.1088
     36 H5'1        2.5581    0.5234   -2.5967 H         1 ACP         0.0327
     37 H5'2        1.1975   -0.4371   -1.9608 H         1 ACP         0.0327
     38 H4'         3.8046   -0.1390   -0.4011 H         1 ACP         0.1275
     39 H3'         1.6787   -1.7627    0.2719 H         1 ACP         0.0637
     40 HO3'        3.5553   -1.2733    1.4913 H         1 ACP         0.4127
     41 H2'         0.0002   -0.0084   -0.0014 H         1 ACP         0.0692
     42 HO2'       -0.1554   -0.9852    2.0577 H         1 ACP         0.4431
     43 H1'         1.7718    1.9211    1.6015 H         1 ACP         0.1199
     44 H8         -0.2991    1.7413   -1.9611 H         1 ACP         0.2941
     45 HN61       -2.5167    5.6603   -1.4447 H         1 ACP         0.4754
     46 HN62       -2.7159    6.9882   -0.3270 H         1 ACP         0.4754
     47 H2          0.1059    5.8491    3.2340 H         1 ACP         0.0886
     48 H48        -1.4532    6.9099    1.7401 H         1 ACP         0.4707
@<TRIPOS>BOND
     1    1    2 2
     2    1    3 1
     3    1    4 1
     4    1    8 1
     5    3   32 1
     6    4   33 1
     7    5    6 2
     8    5    7 1
     9    5    8 1
    10    5   12 1
    11    8   34 1
    12    8   35 1
    13    9   10 2
    14    9   11 1
    15    9   12 1
    16    9   13 1
    17   13   14 1
    18   14   15 1
    19   14   36 1
    20   14   37 1
    21   15   16 1
    22   15   17 1
    23   15   38 1
    24   16   21 1
    25   17   18 1
    26   17   19 1
    27   17   39 1
    28   18   40 1
    29   19   20 1
    30   19   21 1
    31   19   41 1
    32   20   42 1
    33   21   22 1
    34   21   43 1
    35   22   23 ar
    36   22   31 ar
    37   23   24 ar
    38   23   44 1
    39   24   25 ar
    40   25   26 ar
    41   25   31 ar
    42   26   27 1
    43   26   28 ar
    44   27   45 1
    45   27   46 1
    46   28   29 ar
    47   28   48 1
    48   29   30 ar
    49   29   47 1
    50   30   31 ar
@<TRIPOS>SUBSTRUCTURE
     1 ACP         1 GROUP 0 A     ****
@<TRIPOS>MOLECULE
[[5-(6-amino-1,8-dihydropurine-6,8-diylium-7-id-9-yl)-3,4-dihydroxy-tetrahydrofuran-2-yl]methoxy-oxido-phosphoryl]oxy-(phosphonomethyl)phosphinate
   48    50     1     0     0
SMALL
USER_CHARGES

@<TRIPOS>ATOM
      1 PG          4.1273   -4.8910   -4.0833 P.3       1 ACP         1.6558
      2 O1G         4.7678   -3.9737   -3.0855 O.2       1 ACP        -0.9020
      3 O2G         3.7566   -6.3643   -3.5336 O.3       1 ACP        -0.8036
      4 O3G         4.9996   -5.1894   -5.4099 O.3       1 ACP        -0.8036
      5 PB          2.4002   -2.6974   -5.6754 P.3       1 ACP         1.4945
      6 O1B         0.9475   -2.5472   -6.0637 O.co2     1 ACP        -0.8481
      7 O2B         3.5162   -2.6558   -6.6934 O.co2     1 ACP        -0.8481
      8 C3B         2.5583   -4.2902   -4.7487 C.3       1 ACP        -0.6636
      9 PA          3.0640   -0.0874   -4.4291 P.3       1 ACP         1.6023
     10 O1A         1.8214    0.6556   -4.8701 O.co2     1 ACP        -0.8673
     11 O2A         4.3865    0.1390   -5.1289 O.co2     1 ACP        -0.8673
     12 O3A         2.7413   -1.6884   -4.4406 O.3       1 ACP        -0.8150
     13 O5'         3.2885    0.1337   -2.8242 O.3       1 ACP        -0.5522
     14 C5'         2.2816   -0.2918   -1.9206 C.3       1 ACP         0.2181
     15 C4'         2.7248    0.0226   -0.4980 C.3       1 ACP         0.0915
     16 O4'         2.4697    1.4219   -0.2462 O.3       1 ACP        -0.3675
     17 C3'         1.9404   -0.7419    0.5596 C.3       1 ACP         0.0748
     18 O3'         2.7418   -0.8086    1.7389 O.3       1 ACP        -0.5646
     19 C2'         0.7477    0.1630    0.7858 C.3       1 ACP         0.0804
     20 O2'         0.1373   -0.0577    2.0407 O.3       1 ACP        -0.5882
     21 C1'         1.3733    1.5427    0.6747 C.3       1 ACP         0.3809
     22 N9          0.4520    2.5240    0.1767 N.pl3     1 ACP        -0.4412
     23 C8          0.5793    3.3338   -1.1209 C.ar      1 ACP         0.1936
     24 N7         -0.4807    4.1508   -1.2458 N.2       1 ACP        -0.2746
     25 C5         -1.1921    3.8572   -0.1126 C.ar      1 ACP        -0.1386
     26 C6         -2.4855    4.5203    0.2163 C.ar      1 ACP         0.4778
     27 N6         -2.9873    5.4319   -0.6020 N.pl3     1 ACP        -0.8290
     28 N1         -3.0414    4.1119    1.3596 N.pl3     1 ACP        -0.6985
     29 C2         -2.4169    3.1071    2.1904 C.ar      1 ACP         0.6179
     30 N3         -1.2928    2.5191    1.9210 N.ar      1 ACP        -0.5105
     31 C4         -0.7202    2.9326    0.7534 C.ar      1 ACP         0.2753
     32 HOG2        4.4747   -6.9383   -3.1914 H         1 ACP         0.4487
     33 HOG3        5.8812   -5.6084   -5.3146 H         1 ACP         0.4487
     34 H3B1        2.1668   -5.0619   -5.4211 H         1 ACP         0.1088
     35 H3B2        1.8610   -4.2167   -3.9064 H         1 ACP         0.1088
     36 H5'1        1.3501    0.2325   -2.1561 H         1 ACP         0.0327
     37 H5'2        2.1268   -1.3683   -2.0445 H         1 ACP         0.0327
     38 H4'         3.8046   -0.1390   -0.4011 H         1 ACP         0.1275
     39 H3'         1.6787   -1.7627    0.2719 H         1 ACP         0.0637
     40 HO3'        3.5553   -1.2733    1.4913 H         1 ACP         0.4127
     41 H2'         0.0002   -0.0084   -0.0014 H         1 ACP         0.0692
     42 HO2'        0.8091    0.1203    2.7213 H         1 ACP         0.4431
     43 H1'         1.7718    1.9211    1.6015 H         1 ACP         0.1199
     44 H8          1.3565    3.3309   -1.8916 H         1 ACP         0.2941
     45 HN61       -2.4952    5.6785   -1.4487 H         1 ACP         0.4754
     46 HN62       -3.8637    5.8828   -0.3819 H         1 ACP         0.4754
     47 H2         -2.9911    2.8734    3.1000 H         1 ACP         0.0886
     48 H48        -3.9253    4.5332    1.6302 H         1 ACP         0.4707
@<TRIPOS>BOND
     1    1    2 2
     2    1    3 1
     3    1    4 1
     4    1    8 1
     5    3   32 1
     6    4   33 1
     7    5    6 2
     8    5    7 1
     9    5    8 1
    10    5   12 1
    11    8   34 1
    12    8   35 1
    13    9   10 2
    14    9   11 1
    15    9   12 1
    16    9   13 1
    17   13   14 1
    18   14   15 1
    19   14   36 1
    20   14   37 1
    21   15   16 1
    22   15   17 1
    23   15   38 1
    24   16   21 1
    25   17   18 1
    26   17   19 1
    27   17   39 1
    28   18   40 1
    29   19   20 1
    30   19   21 1
    31   19   41 1
    32   20   42 1
    33   21   22 1
    34   21   43 1
    35   22   23 ar
    36   22   31 ar
    37   23   24 ar
    38   23   44 1
    39   24   25 ar
    40   25   26 ar
    41   25   31 ar
    42   26   27 1
    43   26   28 ar
    44   27   45 1
    45   27   46 1
    46   28   29 ar
    47   28   48 1
    48   29   30 ar
    49   29   47 1
    50   30   31 ar
@<TRIPOS>SUBSTRUCTURE
     1 ACP         1 GROUP 0 A     ****
@<TRIPOS>MOLECULE
[[5-(6-amino-1,8-dihydropurine-6,8-diylium-7-id-9-yl)-3,4-dihydroxy-tetrahydrofuran-2-yl]methoxy-oxido-phosphoryl]oxy-(phosphonomethyl)phosphinate
   48    50     1     0     0
SMALL
USER_CHARGES

@<TRIPOS>ATOM
      1 PG         -6.2878   -6.2459    3.2511 P.3       1 ACP         1.6558
      2 O1G        -6.7893   -7.6258    2.9481 O.2       1 ACP        -0.9020
      3 O2G        -5.3791   -6.1141    4.5804 O.3       1 ACP        -0.8036
      4 O3G        -7.4308   -5.1236    3.4599 O.3       1 ACP        -0.8036
      5 PB         -3.6534   -6.3047    1.4108 P.3       1 ACP         1.4945
      6 O1B        -3.0776   -5.4211    0.3286 O.co2     1 ACP        -0.8481
      7 O2B        -3.9189   -7.7766    1.1949 O.co2     1 ACP        -0.8481
      8 C3B        -5.2415   -5.5330    1.9617 C.3       1 ACP        -0.6636
      9 PA         -1.2319   -6.3265    3.1261 P.3       1 ACP         1.6023
     10 O1A        -0.8660   -7.7443    2.7434 O.co2     1 ACP        -0.8673
     11 O2A        -0.9557   -5.8090    4.5210 O.co2     1 ACP        -0.8673
     12 O3A        -2.8134   -6.0919    2.7923 O.3       1 ACP        -0.8150
     13 O5'        -0.5696   -5.2856    2.0523 O.3       1 ACP        -0.5522
     14 C5'        -0.7840   -3.8935    2.2172 C.3       1 ACP         0.2181
     15 C4'        -0.0724   -3.1466    1.1027 C.3       1 ACP         0.0915
     16 O4'        -0.8674   -3.1929   -0.0945 O.3       1 ACP        -0.3675
     17 C3'         0.1338   -1.6715    1.4027 C.3       1 ACP         0.0748
     18 O3'         1.2893   -1.4445    2.1808 O.3       1 ACP        -0.5646
     19 C2'         0.2158   -1.0724    0.0128 C.3       1 ACP         0.0804
     20 O2'         1.5141   -1.2448   -0.5513 O.3       1 ACP        -0.5882
     21 C1'        -0.7897   -1.9176   -0.7583 C.3       1 ACP         0.3809
     22 N9         -2.1040   -1.3333   -0.7704 N.pl3     1 ACP        -0.4412
     23 C8         -3.2124   -1.5345    0.2719 C.ar      1 ACP         0.1936
     24 N7         -4.2964   -0.8234   -0.0828 N.2       1 ACP        -0.2746
     25 C5         -3.8754   -0.2386   -1.2478 C.ar      1 ACP        -0.1386
     26 C6         -4.7432    0.6719   -2.0470 C.ar      1 ACP         0.4778
     27 N6         -5.9725    0.9415   -1.6366 N.pl3     1 ACP        -0.8290
     28 N1         -4.1703    1.1517   -3.1536 N.pl3     1 ACP        -0.6985
     29 C2         -2.8174    0.7994   -3.5215 C.ar      1 ACP         0.6179
     30 N3         -2.0475    0.0097   -2.8393 N.ar      1 ACP        -0.5105
     31 C4         -2.6278   -0.4836   -1.7071 C.ar      1 ACP         0.2753
     32 HOG2       -5.7658   -6.3631    5.4468 H         1 ACP         0.4487
     33 HOG3       -8.0876   -5.2423    4.1786 H         1 ACP         0.4487
     34 H3B1       -5.8513   -5.4366    1.0563 H         1 ACP         0.1088
     35 H3B2       -4.9847   -4.5173    2.2835 H         1 ACP         0.1088
     36 H5'1       -1.8599   -3.6947    2.1849 H         1 ACP         0.0327
     37 H5'2       -0.3934   -3.5882    3.1930 H         1 ACP         0.0327
     38 H4'         0.8883   -3.6447    0.8783 H         1 ACP         0.1275
     39 H3'        -0.7368   -1.2359    1.9871 H         1 ACP         0.0637
     40 HO3'        1.3407   -0.4871    2.3218 H         1 ACP         0.4127
     41 H2'        -0.0343   -0.0280    0.0196 H         1 ACP         0.0692
     42 HO2'        2.1443   -0.7955    0.0378 H         1 ACP         0.4431
     43 H1'        -0.5175   -2.1046   -1.7826 H         1 ACP         0.1199
     44 H8         -3.2310   -2.1319    1.1889 H         1 ACP         0.2941
     45 HN61       -6.3230    0.5316   -0.7829 H         1 ACP         0.4754
     46 HN62       -6.5628    1.5584   -2.1760 H         1 ACP         0.4754
     47 H2         -2.4822    1.2710   -4.4579 H         1 ACP         0.0886
     48 H48        -4.7200    1.7780   -3.7346 H         1 ACP         0.4707
@<TRIPOS>BOND
     1    1    2 2
     2    1    3 1
     3    1    4 1
     4    1    8 1
     5    3   32 1
     6    4   33 1
     7    5    6 2
     8    5    7 1
     9    5    8 1
    10    5   12 1
    11    8   34 1
    12    8   35 1
    13    9   10 2
    14    9   11 1
    15    9   12 1
    16    9   13 1
    17   13   14 1
    18   14   15 1
    19   14   36 1
    20   14   37 1
    21   15   16 1
    22   15   17 1
    23   15   38 1
    24   16   21 1
    25   17   18 1
    26   17   19 1
    27   17   39 1
    28   18   40 1
    29   19   20 1
    30   19   21 1
    31   19   41 1
    32   20   42 1
    33   21   22 1
    34   21   43 1
    35   22   23 ar
    36   22   31 ar
    37   23   24 ar
    38   23   44 1
    39   24   25 ar
    40   25   26 ar
    41   25   31 ar
    42   26   27 1
    43   26   28 ar
    44   27   45 1
    45   27   46 1
    46   28   29 ar
    47   28   48 1
    48   29   30 ar
    49   29   47 1
    50   30   31 ar
@<TRIPOS>SUBSTRUCTURE
     1 ACP         1 GROUP 0 A     ****
@<TRIPOS>MOLECULE
[[5-(6-amino-1,8-dihydropurine-6,8-diylium-7-id-9-yl)-3,4-dihydroxy-tetrahydrofuran-2-yl]methoxy-oxido-phosphoryl]oxy-(phosphonomethyl)phosphinate
   48    50     1     0     0
SMALL
USER_CHARGES

@<TRIPOS>ATOM
      1 PG         -2.0590   -2.8060    0.0978 P.3       1 ACP         1.6558
      2 O1G        -2.8771   -2.2184    1.2082 O.2       1 ACP        -0.9020
      3 O2G        -2.3390   -4.3650   -0.2203 O.3       1 ACP        -0.8036
      4 O3G        -0.4586   -2.7430    0.3082 O.3       1 ACP        -0.8036
      5 PB         -1.4063   -2.5391   -3.0379 P.3       1 ACP         1.4945
      6 O1B        -1.8669   -1.6370   -4.1593 O.co2     1 ACP        -0.8481
      7 O2B        -1.5097   -4.0446   -3.1187 O.co2     1 ACP        -0.8481
      8 C3B        -2.2952   -2.0070   -1.5057 C.3       1 ACP        -0.6636
      9 PA          1.5529   -2.4527   -3.2419 P.3       1 ACP         1.6023
     10 O1A         1.6308   -1.7828   -4.5968 O.co2     1 ACP        -0.8673
     11 O2A         1.8077   -3.9377   -3.1006 O.co2     1 ACP        -0.8673
     12 O3A         0.0994   -2.1129   -2.5791 O.3       1 ACP        -0.8150
     13 O5'         2.5238   -1.6632   -2.1888 O.3       1 ACP        -0.5522
     14 C5'         2.2816   -0.2918   -1.9206 C.3       1 ACP         0.2181
     15 C4'         2.7248    0.0226   -0.4980 C.3       1 ACP         0.0915
     16 O4'         2.4697    1.4219   -0.2462 O.3       1 ACP        -0.3675
     17 C3'         1.9404   -0.7419    0.5596 C.3       1 ACP         0.0748
     18 O3'         2.7418   -0.8086    1.7389 O.3       1 ACP        -0.5646
     19 C2'         0.7477    0.1630    0.7858 C.3       1 ACP         0.0804
     20 O2'         0.1373   -0.0577    2.0407 O.3       1 ACP        -0.5882
     21 C1'         1.3733    1.5427    0.6747 C.3       1 ACP         0.3809
     22 N9          0.4520    2.5240    0.1767 N.pl3     1 ACP        -0.4412
     23 C8          0.5793    3.3338   -1.1209 C.ar      1 ACP         0.1936
     24 N7         -0.4807    4.1508   -1.2458 N.2       1 ACP        -0.2746
     25 C5         -1.1921    3.8572   -0.1126 C.ar      1 ACP        -0.1386
     26 C6         -2.4855    4.5203    0.2163 C.ar      1 ACP         0.4778
     27 N6         -2.9873    5.4319   -0.6020 N.pl3     1 ACP        -0.8290
     28 N1         -3.0414    4.1119    1.3596 N.pl3     1 ACP        -0.6985
     29 C2         -2.4169    3.1071    2.1904 C.ar      1 ACP         0.6179
     30 N3         -1.2928    2.5191    1.9210 N.ar      1 ACP        -0.5105
     31 C4         -0.7202    2.9326    0.7534 C.ar      1 ACP         0.2753
     32 HOG2       -2.1912   -5.0282    0.4871 H         1 ACP         0.4487
     33 HOG3       -0.0634   -3.1925    1.0853 H         1 ACP         0.4487
     34 H3B1       -3.3620   -2.0637   -1.7498 H         1 ACP         0.1088
     35 H3B2       -2.0539   -0.9462   -1.3731 H         1 ACP         0.1088
     36 H5'1        2.8430    0.3138   -2.6391 H         1 ACP         0.0327
     37 H5'2        1.2126   -0.0907   -2.0421 H         1 ACP         0.0327
     38 H4'         3.8046   -0.1390   -0.4011 H         1 ACP         0.1275
     39 H3'         1.6787   -1.7627    0.2719 H         1 ACP         0.0637
     40 HO3'        2.2231   -1.2979    2.3952 H         1 ACP         0.4127
     41 H2'         0.0002   -0.0084   -0.0014 H         1 ACP         0.0692
     42 HO2'       -0.1554   -0.9852    2.0577 H         1 ACP         0.4431
     43 H1'         1.7718    1.9211    1.6015 H         1 ACP         0.1199
     44 H8          1.3565    3.3309   -1.8916 H         1 ACP         0.2941
     45 HN61       -2.4952    5.6785   -1.4487 H         1 ACP         0.4754
     46 HN62       -3.8637    5.8828   -0.3819 H         1 ACP         0.4754
     47 H2         -2.9911    2.8734    3.1000 H         1 ACP         0.0886
     48 H48        -3.9253    4.5332    1.6302 H         1 ACP         0.4707
@<TRIPOS>BOND
     1    1    2 2
     2    1    3 1
     3    1    4 1
     4    1    8 1
     5    3   32 1
     6    4   33 1
     7    5    6 2
     8    5    7 1
     9    5    8 1
    10    5   12 1
    11    8   34 1
    12    8   35 1
    13    9   10 2
    14    9   11 1
    15    9   12 1
    16    9   13 1
    17   13   14 1
    18   14   15 1
    19   14   36 1
    20   14   37 1
    21   15   16 1
    22   15   17 1
    23   15   38 1
    24   16   21 1
    25   17   18 1
    26   17   19 1
    27   17   39 1
    28   18   40 1
    29   19   20 1
    30   19   21 1
    31   19   41 1
    32   20   42 1
    33   21   22 1
    34   21   43 1
    35   22   23 ar
    36   22   31 ar
    37   23   24 ar
    38   23   44 1
    39   24   25 ar
    40   25   26 ar
    41   25   31 ar
    42   26   27 1
    43   26   28 ar
    44   27   45 1
    45   27   46 1
    46   28   29 ar
    47   28   48 1
    48   29   30 ar
    49   29   47 1
    50   30   31 ar
@<TRIPOS>SUBSTRUCTURE
     1 ACP         1 GROUP 0 A     ****
@<TRIPOS>MOLECULE
[[5-(6-amino-1,8-dihydropurine-6,8-diylium-7-id-9-yl)-3,4-dihydroxy-tetrahydrofuran-2-yl]methoxy-oxido-phosphoryl]oxy-(phosphonomethyl)phosphinate
   48    50     1     0     0
SMALL
USER_CHARGES

@<TRIPOS>ATOM
      1 PG         -1.0980   -1.3261   -6.8606 P.3       1 ACP         1.6558
      2 O1G        -1.0511   -2.4928   -7.8008 O.2       1 ACP        -0.9020
      3 O2G        -1.8831   -1.5846   -5.4724 O.3       1 ACP        -0.8036
      4 O3G        -1.7934    0.0088   -7.4470 O.3       1 ACP        -0.8036
      5 PB          1.7233   -1.8066   -5.3979 P.3       1 ACP         1.4945
      6 O1B         2.9493   -0.9668   -5.1237 O.co2     1 ACP        -0.8481
      7 O2B         1.7973   -3.1304   -6.1229 O.co2     1 ACP        -0.8481
      8 C3B         0.5231   -0.7410   -6.3170 C.3       1 ACP        -0.6636
      9 PA          1.2667   -2.6319   -2.5842 P.3       1 ACP         1.6023
     10 O1A         1.7714   -4.0387   -2.8224 O.co2     1 ACP        -0.8673
     11 O2A         0.1413   -2.3719   -1.6065 O.co2     1 ACP        -0.8673
     12 O3A         0.8610   -1.9767   -4.0243 O.3       1 ACP        -0.8150
     13 O5'         2.5238   -1.6632   -2.1888 O.3       1 ACP        -0.5522
     14 C5'         2.2816   -0.2918   -1.9206 C.3       1 ACP         0.2181
     15 C4'         2.7248    0.0226   -0.4980 C.3       1 ACP         0.0915
     16 O4'         2.4697    1.4219   -0.2462 O.3       1 ACP        -0.3675
     17 C3'         1.9404   -0.7419    0.5596 C.3       1 ACP         0.0748
     18 O3'         2.7418   -0.8086    1.7389 O.3       1 ACP        -0.5646
     19 C2'         0.7477    0.1630    0.7858 C.3       1 ACP         0.0804
     20 O2'         0.1373   -0.0577    2.0407 O.3       1 ACP        -0.5882
     21 C1'         1.3733    1.5427    0.6747 C.3       1 ACP         0.3809
     22 N9          0.4520    2.5240    0.1767 N.pl3     1 ACP        -0.4412
     23 C8          0.1798    2.8712   -1.2933 C.ar      1 ACP         0.1936
     24 N7         -0.7494    3.8400   -1.3610 N.2       1 ACP        -0.2746
     25 C5         -1.0173    4.0603   -0.0358 C.ar      1 ACP        -0.1386
     26 C6         -2.0105    5.0717    0.4241 C.ar      1 ACP         0.4778
     27 N6         -2.6723    5.7982   -0.4628 N.pl3     1 ACP        -0.8290
     28 N1         -2.1445    5.1522    1.7502 N.pl3     1 ACP        -0.6985
     29 C2         -1.3755    4.3143    2.6426 C.ar      1 ACP         0.6179
     30 N3         -0.5075    3.4292    2.2616 N.ar      1 ACP        -0.5105
     31 C4         -0.3667    3.3425    0.9070 C.ar      1 ACP         0.2753
     32 HOG2       -2.8312   -1.8343   -5.5022 H         1 ACP         0.4487
     33 HOG3       -2.7296   -0.0312   -7.7369 H         1 ACP         0.4487
     34 H3B1        1.0619   -0.3881   -7.2036 H         1 ACP         0.1088
     35 H3B2        0.3501    0.1333   -5.6793 H         1 ACP         0.1088
     36 H5'1        2.8430    0.3138   -2.6391 H         1 ACP         0.0327
     37 H5'2        1.2126   -0.0907   -2.0421 H         1 ACP         0.0327
     38 H4'         3.8046   -0.1390   -0.4011 H         1 ACP         0.1275
     39 H3'         1.6787   -1.7627    0.2719 H         1 ACP         0.0637
     40 HO3'        2.2231   -1.2979    2.3952 H         1 ACP         0.4127
     41 H2'         0.0002   -0.0084   -0.0014 H         1 ACP         0.0692
     42 HO2'       -0.1554   -0.9852    2.0577 H         1 ACP         0.4431
     43 H1'         1.7718    1.9211    1.6015 H         1 ACP         0.1199
     44 H8          0.6089    2.4651   -2.2147 H         1 ACP         0.2941
     45 HN61       -2.5055    5.6680   -1.4503 H         1 ACP         0.4754
     46 HN62       -3.3462    6.4841   -0.1542 H         1 ACP         0.4754
     47 H2         -1.5932    4.4937    3.7066 H         1 ACP         0.0886
     48 H48        -2.8098    5.8270    2.1160 H         1 ACP         0.4707
@<TRIPOS>BOND
     1    1    2 2
     2    1    3 1
     3    1    4 1
     4    1    8 1
     5    3   32 1
     6    4   33 1
     7    5    6 2
     8    5    7 1
     9    5    8 1
    10    5   12 1
    11    8   34 1
    12    8   35 1
    13    9   10 2
    14    9   11 1
    15    9   12 1
    16    9   13 1
    17   13   14 1
    18   14   15 1
    19   14   36 1
    20   14   37 1
    21   15   16 1
    22   15   17 1
    23   15   38 1
    24   16   21 1
    25   17   18 1
    26   17   19 1
    27   17   39 1
    28   18   40 1
    29   19   20 1
    30   19   21 1
    31   19   41 1
    32   20   42 1
    33   21   22 1
    34   21   43 1
    35   22   23 ar
    36   22   31 ar
    37   23   24 ar
    38   23   44 1
    39   24   25 ar
    40   25   26 ar
    41   25   31 ar
    42   26   27 1
    43   26   28 ar
    44   27   45 1
    45   27   46 1
    46   28   29 ar
    47   28   48 1
    48   29   30 ar
    49   29   47 1
    50   30   31 ar
@<TRIPOS>SUBSTRUCTURE
     1 ACP         1 GROUP 0 A     ****
@<TRIPOS>MOLECULE
[[5-(6-amino-1,8-dihydropurine-6,8-diylium-7-id-9-yl)-3,4-dihydroxy-tetrahydrofuran-2-yl]methoxy-oxido-phosphoryl]oxy-(phosphonomethyl)phosphinate
   48    50     1     0     0
SMALL
USER_CHARGES

@<TRIPOS>ATOM
      1 PG          5.9401   -3.5394   -4.5498 P.3       1 ACP         1.6558
      2 O1G         6.1056   -2.6145   -3.3817 O.2       1 ACP        -0.9020
      3 O2G         6.1259   -5.1106   -4.2226 O.3       1 ACP        -0.8036
      4 O3G         6.9525   -3.2863   -5.7829 O.3       1 ACP        -0.8036
      5 PB          3.6212   -1.9264   -6.0829 P.3       1 ACP         1.4945
      6 O1B         2.2542   -2.2679   -6.6291 O.co2     1 ACP        -0.8481
      7 O2B         4.7052   -1.3188   -6.9427 O.co2     1 ACP        -0.8481
      8 C3B         4.3127   -3.4688   -5.3321 C.3       1 ACP        -0.6636
      9 PA          2.7380    0.3741   -4.4295 P.3       1 ACP         1.6023
     10 O1A         1.2513    0.2198   -4.6674 O.co2     1 ACP        -0.8673
     11 O2A         3.5254    1.4501   -5.1452 O.co2     1 ACP        -0.8673
     12 O3A         3.4589   -1.0647   -4.7080 O.3       1 ACP        -0.8150
     13 O5'         3.0199    0.5139   -2.8245 O.3       1 ACP        -0.5522
     14 C5'         2.2816   -0.2918   -1.9206 C.3       1 ACP         0.2181
     15 C4'         2.7248    0.0226   -0.4980 C.3       1 ACP         0.0915
     16 O4'         2.4697    1.4219   -0.2462 O.3       1 ACP        -0.3675
     17 C3'         1.9404   -0.7419    0.5596 C.3       1 ACP         0.0748
     18 O3'         2.7418   -0.8086    1.7389 O.3       1 ACP        -0.5646
     19 C2'         0.7477    0.1630    0.7858 C.3       1 ACP         0.0804
     20 O2'         0.1373   -0.0577    2.0407 O.3       1 ACP        -0.5882
     21 C1'         1.3733    1.5427    0.6747 C.3       1 ACP         0.3809
     22 N9          0.4520    2.5240    0.1767 N.pl3     1 ACP        -0.4412
     23 C8         -1.0660    2.5608    0.3999 C.ar      1 ACP         0.1936
     24 N7         -1.5852    3.6333   -0.2221 N.2       1 ACP        -0.2746
     25 C5         -0.4682    4.1996   -0.7771 C.ar      1 ACP        -0.1386
     26 C6         -0.5216    5.4476   -1.5899 C.ar      1 ACP         0.4778
     27 N6         -1.6813    6.0510   -1.7982 N.pl3     1 ACP        -0.8290
     28 N1          0.6621    5.8575   -2.0523 N.pl3     1 ACP        -0.6985
     29 C2          1.8795    5.1301   -1.7717 C.ar      1 ACP         0.6179
     30 N3          1.9458    4.0434   -1.0670 N.ar      1 ACP        -0.5105
     31 C4          0.7388    3.6199   -0.5917 C.ar      1 ACP         0.2753
     32 HOG2        6.9829   -5.4226   -3.8616 H         1 ACP         0.4487
     33 HOG3        7.9183   -3.3579   -5.6272 H         1 ACP         0.4487
     34 H3B1        4.2970   -4.2179   -6.1318 H         1 ACP         0.1088
     35 H3B2        3.5823   -3.7889   -4.5803 H         1 ACP         0.1088
     36 H5'1        1.2154   -0.0780   -2.0455 H         1 ACP         0.0327
     37 H5'2        2.4646   -1.3453   -2.1548 H         1 ACP         0.0327
     38 H4'         3.8046   -0.1390   -0.4011 H         1 ACP         0.1275
     39 H3'         1.6787   -1.7627    0.2719 H         1 ACP         0.0637
     40 HO3'        2.2231   -1.2979    2.3952 H         1 ACP         0.4127
     41 H2'         0.0002   -0.0084   -0.0014 H         1 ACP         0.0692
     42 HO2'       -0.1554   -0.9852    2.0577 H         1 ACP         0.4431
     43 H1'         1.7718    1.9211    1.6015 H         1 ACP         0.1199
     44 H8         -1.7235    1.8833    0.9537 H         1 ACP         0.2941
     45 HN61       -2.5296    5.6672   -1.4072 H         1 ACP         0.4754
     46 HN62       -1.7205    6.8969   -2.3483 H         1 ACP         0.4754
     47 H2          2.7750    5.5878   -2.2190 H         1 ACP         0.0886
     48 H48         0.6808    6.7046   -2.6128 H         1 ACP         0.4707
@<TRIPOS>BOND
     1    1    2 2
     2    1    3 1
     3    1    4 1
     4    1    8 1
     5    3   32 1
     6    4   33 1
     7    5    6 2
     8    5    7 1
     9    5    8 1
    10    5   12 1
    11    8   34 1
    12    8   35 1
    13    9   10 2
    14    9   11 1
    15    9   12 1
    16    9   13 1
    17   13   14 1
    18   14   15 1
    19   14   36 1
    20   14   37 1
    21   15   16 1
    22   15   17 1
    23   15   38 1
    24   16   21 1
    25   17   18 1
    26   17   19 1
    27   17   39 1
    28   18   40 1
    29   19   20 1
    30   19   21 1
    31   19   41 1
    32   20   42 1
    33   21   22 1
    34   21   43 1
    35   22   23 ar
    36   22   31 ar
    37   23   24 ar
    38   23   44 1
    39   24   25 ar
    40   25   26 ar
    41   25   31 ar
    42   26   27 1
    43   26   28 ar
    44   27   45 1
    45   27   46 1
    46   28   29 ar
    47   28   48 1
    48   29   30 ar
    49   29   47 1
    50   30   31 ar
@<TRIPOS>SUBSTRUCTURE
     1 ACP         1 GROUP 0 A     ****
@<TRIPOS>MOLECULE
[[5-(6-amino-1,8-dihydropurine-6,8-diylium-7-id-9-yl)-3,4-dihydroxy-tetrahydrofuran-2-yl]methoxy-oxido-phosphoryl]oxy-(phosphonomethyl)phosphinate
   48    50     1     0     0
SMALL
USER_CHARGES

@<TRIPOS>ATOM
      1 PG          2.2118   -3.9075   -5.6052 P.3       1 ACP         1.6558
      2 O1G         3.2006   -3.5698   -4.5302 O.2       1 ACP        -0.9020
      3 O2G         1.4432   -5.3169   -5.4233 O.3       1 ACP        -0.8036
      4 O3G         2.8170   -3.9955   -7.1004 O.3       1 ACP        -0.8036
      5 PB          1.1350   -0.9349   -6.1834 P.3       1 ACP         1.4945
      6 O1B        -0.2233   -0.2750   -6.2390 O.co2     1 ACP        -0.8481
      7 O2B         2.1070   -0.8802   -7.3391 O.co2     1 ACP        -0.8481
      8 C3B         0.8619   -2.7185   -5.7768 C.3       1 ACP        -0.6636
      9 PA          2.3308    0.9611   -4.2388 P.3       1 ACP         1.6023
     10 O1A         1.0771    1.7604   -3.9568 O.co2     1 ACP        -0.8673
     11 O2A         3.4129    1.5166   -5.1392 O.co2     1 ACP        -0.8673
     12 O3A         1.8925   -0.5072   -4.8040 O.3       1 ACP        -0.8150
     13 O5'         3.0199    0.5139   -2.8245 O.3       1 ACP        -0.5522
     14 C5'         2.2816   -0.2918   -1.9206 C.3       1 ACP         0.2181
     15 C4'         2.7248    0.0226   -0.4980 C.3       1 ACP         0.0915
     16 O4'         2.4697    1.4219   -0.2462 O.3       1 ACP        -0.3675
     17 C3'         1.9404   -0.7419    0.5596 C.3       1 ACP         0.0748
     18 O3'         2.7418   -0.8086    1.7389 O.3       1 ACP        -0.5646
     19 C2'         0.7477    0.1630    0.7858 C.3       1 ACP         0.0804
     20 O2'         0.1373   -0.0577    2.0407 O.3       1 ACP        -0.5882
     21 C1'         1.3733    1.5427    0.6747 C.3       1 ACP         0.3809
     22 N9          0.4520    2.5240    0.1767 N.pl3     1 ACP        -0.4412
     23 C8         -0.7463    2.2774   -0.7501 C.ar      1 ACP         0.1936
     24 N7         -1.3714    3.4419   -0.9948 N.2       1 ACP        -0.2746
     25 C5         -0.6104    4.3223   -0.2723 C.ar      1 ACP        -0.1386
     26 C6         -0.9062    5.7820   -0.2194 C.ar      1 ACP         0.4778
     27 N6         -1.9385    6.2713   -0.8881 N.pl3     1 ACP        -0.8290
     28 N1         -0.0613    6.4906    0.5336 N.pl3     1 ACP        -0.6985
     29 C2          1.0416    5.8662    1.2291 C.ar      1 ACP         0.6179
     30 N3          1.3146    4.5989    1.1954 N.ar      1 ACP        -0.5105
     31 C4          0.4541    3.8697    0.4273 C.ar      1 ACP         0.2753
     32 HOG2        1.9691   -6.1442   -5.3914 H         1 ACP         0.4487
     33 HOG3        3.5239   -4.6487   -7.2892 H         1 ACP         0.4487
     34 H3B1        0.1844   -3.0963   -6.5508 H         1 ACP         0.1088
     35 H3B2        0.3053   -2.7282   -4.8327 H         1 ACP         0.1088
     36 H5'1        1.2154   -0.0780   -2.0455 H         1 ACP         0.0327
     37 H5'2        2.4646   -1.3453   -2.1548 H         1 ACP         0.0327
     38 H4'         3.8046   -0.1390   -0.4011 H         1 ACP         0.1275
     39 H3'         1.6787   -1.7627    0.2719 H         1 ACP         0.0637
     40 HO3'        2.2231   -1.2979    2.3952 H         1 ACP         0.4127
     41 H2'         0.0002   -0.0084   -0.0014 H         1 ACP         0.0692
     42 HO2'       -0.1554   -0.9852    2.0577 H         1 ACP         0.4431
     43 H1'         1.7718    1.9211    1.6015 H         1 ACP         0.1199
     44 H8         -1.1244    1.3534   -1.1987 H         1 ACP         0.2941
     45 HN61       -2.5259    5.6573   -1.4336 H         1 ACP         0.4754
     46 HN62       -2.1416    7.2600   -0.8539 H         1 ACP         0.4754
     47 H2          1.6509    6.5764    1.8088 H         1 ACP         0.0886
     48 H48        -0.2190    7.4917    0.6033 H         1 ACP         0.4707
@<TRIPOS>BOND
     1    1    2 2
     2    1    3 1
     3    1    4 1
     4    1    8 1
     5    3   32 1
     6    4   33 1
     7    5    6 2
     8    5    7 1
     9    5    8 1
    10    5   12 1
    11    8   34 1
    12    8   35 1
    13    9   10 2
    14    9   11 1
    15    9   12 1
    16    9   13 1
    17   13   14 1
    18   14   15 1
    19   14   36 1
    20   14   37 1
    21   15   16 1
    22   15   17 1
    23   15   38 1
    24   16   21 1
    25   17   18 1
    26   17   19 1
    27   17   39 1
    28   18   40 1
    29   19   20 1
    30   19   21 1
    31   19   41 1
    32   20   42 1
    33   21   22 1
    34   21   43 1
    35   22   23 ar
    36   22   31 ar
    37   23   24 ar
    38   23   44 1
    39   24   25 ar
    40   25   26 ar
    41   25   31 ar
    42   26   27 1
    43   26   28 ar
    44   27   45 1
    45   27   46 1
    46   28   29 ar
    47   28   48 1
    48   29   30 ar
    49   29   47 1
    50   30   31 ar
@<TRIPOS>SUBSTRUCTURE
     1 ACP         1 GROUP 0 A     ****
@<TRIPOS>MOLECULE
[[5-(6-amino-1,8-dihydropurine-6,8-diylium-7-id-9-yl)-3,4-dihydroxy-tetrahydrofuran-2-yl]methoxy-oxido-phosphoryl]oxy-(phosphonomethyl)phosphinate
   48    50     1     0     0
SMALL
USER_CHARGES

@<TRIPOS>ATOM
      1 PG         -3.2172   -0.4187    5.8018 P.3       1 ACP         1.6558
      2 O1G        -4.2504    0.5654    5.3421 O.2       1 ACP        -0.9020
      3 O2G        -2.6071   -0.1481    7.2731 O.3       1 ACP        -0.8036
      4 O3G        -1.9073   -0.5371    4.8637 O.3       1 ACP        -0.8036
      5 PB         -2.7318   -3.5303    6.4439 P.3       1 ACP         1.4945
      6 O1B        -3.5768   -4.7823    6.3988 O.co2     1 ACP        -0.8481
      7 O2B        -2.0076   -3.0899    7.6950 O.co2     1 ACP        -0.8481
      8 C3B        -3.8055   -2.1243    5.9045 C.3       1 ACP        -0.6636
      9 PA         -0.5283   -4.5720    4.7510 P.3       1 ACP         1.6023
     10 O1A        -1.1738   -5.8924    4.3898 O.co2     1 ACP        -0.8673
     11 O2A         0.5701   -4.5098    5.7900 O.co2     1 ACP        -0.8673
     12 O3A        -1.7033   -3.5212    5.1784 O.3       1 ACP        -0.8150
     13 O5'         0.0100   -3.8402    3.3910 O.3       1 ACP        -0.5522
     14 C5'        -0.7840   -3.8935    2.2172 C.3       1 ACP         0.2181
     15 C4'        -0.0724   -3.1466    1.1027 C.3       1 ACP         0.0915
     16 O4'        -0.8674   -3.1929   -0.0945 O.3       1 ACP        -0.3675
     17 C3'         0.1338   -1.6715    1.4027 C.3       1 ACP         0.0748
     18 O3'         1.2893   -1.4445    2.1808 O.3       1 ACP        -0.5646
     19 C2'         0.2158   -1.0724    0.0128 C.3       1 ACP         0.0804
     20 O2'         1.5141   -1.2448   -0.5513 O.3       1 ACP        -0.5882
     21 C1'        -0.7897   -1.9176   -0.7583 C.3       1 ACP         0.3809
     22 N9         -2.1040   -1.3333   -0.7704 N.pl3     1 ACP        -0.4412
     23 C8         -3.2124   -1.5345    0.2719 C.ar      1 ACP         0.1936
     24 N7         -4.2964   -0.8234   -0.0828 N.2       1 ACP        -0.2746
     25 C5         -3.8754   -0.2386   -1.2478 C.ar      1 ACP        -0.1386
     26 C6         -4.7432    0.6719   -2.0470 C.ar      1 ACP         0.4778
     27 N6         -5.9725    0.9415   -1.6366 N.pl3     1 ACP        -0.8290
     28 N1         -4.1703    1.1517   -3.1536 N.pl3     1 ACP        -0.6985
     29 C2         -2.8174    0.7994   -3.5215 C.ar      1 ACP         0.6179
     30 N3         -2.0475    0.0097   -2.8393 N.ar      1 ACP        -0.5105
     31 C4         -2.6278   -0.4836   -1.7071 C.ar      1 ACP         0.2753
     32 HOG2       -2.1438    0.6988    7.4469 H         1 ACP         0.4487
     33 HOG3       -1.3522    0.2586    4.7202 H         1 ACP         0.4487
     34 H3B1       -4.6681   -2.1367    6.5803 H         1 ACP         0.1088
     35 H3B2       -4.1757   -2.3953    4.9092 H         1 ACP         0.1088
     36 H5'1       -0.9357   -4.9414    1.9397 H         1 ACP         0.0327
     37 H5'2       -1.7557   -3.4349    2.4259 H         1 ACP         0.0327
     38 H4'         0.8883   -3.6447    0.8783 H         1 ACP         0.1275
     39 H3'        -0.7368   -1.2359    1.9871 H         1 ACP         0.0637
     40 HO3'        1.1625   -1.9325    3.0084 H         1 ACP         0.4127
     41 H2'        -0.0343   -0.0280    0.0196 H         1 ACP         0.0692
     42 HO2'        2.1443   -0.7955    0.0378 H         1 ACP         0.4431
     43 H1'        -0.5175   -2.1046   -1.7826 H         1 ACP         0.1199
     44 H8         -3.2310   -2.1319    1.1889 H         1 ACP         0.2941
     45 HN61       -6.3230    0.5316   -0.7829 H         1 ACP         0.4754
     46 HN62       -6.5628    1.5584   -2.1760 H         1 ACP         0.4754
     47 H2         -2.4822    1.2710   -4.4579 H         1 ACP         0.0886
     48 H48        -4.7200    1.7780   -3.7346 H         1 ACP         0.4707
@<TRIPOS>BOND
     1    1    2 2
     2    1    3 1
     3    1    4 1
     4    1    8 1
     5    3   32 1
     6    4   33 1
     7    5    6 2
     8    5    7 1
     9    5    8 1
    10    5   12 1
    11    8   34 1
    12    8   35 1
    13    9   10 2
    14    9   11 1
    15    9   12 1
    16    9   13 1
    17   13   14 1
    18   14   15 1
    19   14   36 1
    20   14   37 1
    21   15   16 1
    22   15   17 1
    23   15   38 1
    24   16   21 1
    25   17   18 1
    26   17   19 1
    27   17   39 1
    28   18   40 1
    29   19   20 1
    30   19   21 1
    31   19   41 1
    32   20   42 1
    33   21   22 1
    34   21   43 1
    35   22   23 ar
    36   22   31 ar
    37   23   24 ar
    38   23   44 1
    39   24   25 ar
    40   25   26 ar
    41   25   31 ar
    42   26   27 1
    43   26   28 ar
    44   27   45 1
    45   27   46 1
    46   28   29 ar
    47   28   48 1
    48   29   30 ar
    49   29   47 1
    50   30   31 ar
@<TRIPOS>SUBSTRUCTURE
     1 ACP         1 GROUP 0 A     ****
@<TRIPOS>MOLECULE
[[5-(6-amino-1,8-dihydropurine-6,8-diylium-7-id-9-yl)-3,4-dihydroxy-tetrahydrofuran-2-yl]methoxy-oxido-phosphoryl]oxy-(phosphonomethyl)phosphinate
   48    50     1     0     0
SMALL
USER_CHARGES

@<TRIPOS>ATOM
      1 PG         -2.1426    0.2536   -3.7289 P.3       1 ACP         1.6558
      2 O1G        -3.3772    0.7403   -3.0316 O.2       1 ACP        -0.9020
      3 O2G        -2.3573   -0.9984   -4.7272 O.3       1 ACP        -0.8036
      4 O3G        -0.9463   -0.2349   -2.7594 O.3       1 ACP        -0.8036
      5 PB          0.1937    1.1445   -5.7483 P.3       1 ACP         1.4945
      6 O1B         0.5475    2.4118   -6.4915 O.co2     1 ACP        -0.8481
      7 O2B        -0.0052   -0.1766   -6.4545 O.co2     1 ACP        -0.8481
      8 C3B        -1.3435    1.4883   -4.7789 C.3       1 ACP        -0.6636
      9 PA          2.7380    0.3741   -4.4295 P.3       1 ACP         1.6023
     10 O1A         3.6394    1.3278   -5.1833 O.co2     1 ACP        -0.8673
     11 O2A         2.7083   -1.0978   -4.7798 O.co2     1 ACP        -0.8673
     12 O3A         1.2106    0.9496   -4.4885 O.3       1 ACP        -0.8150
     13 O5'         3.0199    0.5139   -2.8245 O.3       1 ACP        -0.5522
     14 C5'         2.2816   -0.2918   -1.9206 C.3       1 ACP         0.2181
     15 C4'         2.7248    0.0226   -0.4980 C.3       1 ACP         0.0915
     16 O4'         2.4697    1.4219   -0.2462 O.3       1 ACP        -0.3675
     17 C3'         1.9404   -0.7419    0.5596 C.3       1 ACP         0.0748
     18 O3'         2.7418   -0.8086    1.7389 O.3       1 ACP        -0.5646
     19 C2'         0.7477    0.1630    0.7858 C.3       1 ACP         0.0804
     20 O2'         0.1373   -0.0577    2.0407 O.3       1 ACP        -0.5882
     21 C1'         1.3733    1.5427    0.6747 C.3       1 ACP         0.3809
     22 N9          0.4520    2.5240    0.1767 N.pl3     1 ACP        -0.4412
     23 C8         -1.0660    2.5608    0.3999 C.ar      1 ACP         0.1936
     24 N7         -1.5852    3.6333   -0.2221 N.2       1 ACP        -0.2746
     25 C5         -0.4682    4.1996   -0.7771 C.ar      1 ACP        -0.1386
     26 C6         -0.5216    5.4476   -1.5899 C.ar      1 ACP         0.4778
     27 N6         -1.6813    6.0510   -1.7982 N.pl3     1 ACP        -0.8290
     28 N1          0.6621    5.8575   -2.0523 N.pl3     1 ACP        -0.6985
     29 C2          1.8795    5.1301   -1.7717 C.ar      1 ACP         0.6179
     30 N3          1.9458    4.0434   -1.0670 N.ar      1 ACP        -0.5105
     31 C4          0.7388    3.6199   -0.5917 C.ar      1 ACP         0.2753
     32 HOG2       -2.7073   -1.8401   -4.3651 H         1 ACP         0.4487
     33 HOG3       -1.1107   -0.9759   -2.1382 H         1 ACP         0.4487
     34 H3B1       -2.0837    1.8285   -5.5119 H         1 ACP         0.1088
     35 H3B2       -1.1084    2.3473   -4.1401 H         1 ACP         0.1088
     36 H5'1        1.2154   -0.0780   -2.0455 H         1 ACP         0.0327
     37 H5'2        2.4646   -1.3453   -2.1548 H         1 ACP         0.0327
     38 H4'         3.8046   -0.1390   -0.4011 H         1 ACP         0.1275
     39 H3'         1.6787   -1.7627    0.2719 H         1 ACP         0.0637
     40 HO3'        2.2231   -1.2979    2.3952 H         1 ACP         0.4127
     41 H2'         0.0002   -0.0084   -0.0014 H         1 ACP         0.0692
     42 HO2'        0.8091    0.1203    2.7213 H         1 ACP         0.4431
     43 H1'         1.7718    1.9211    1.6015 H         1 ACP         0.1199
     44 H8         -1.7235    1.8833    0.9537 H         1 ACP         0.2941
     45 HN61       -2.5296    5.6672   -1.4072 H         1 ACP         0.4754
     46 HN62       -1.7205    6.8969   -2.3483 H         1 ACP         0.4754
     47 H2          2.7750    5.5878   -2.2190 H         1 ACP         0.0886
     48 H48         0.6808    6.7046   -2.6128 H         1 ACP         0.4707
@<TRIPOS>BOND
     1    1    2 2
     2    1    3 1
     3    1    4 1
     4    1    8 1
     5    3   32 1
     6    4   33 1
     7    5    6 2
     8    5    7 1
     9    5    8 1
    10    5   12 1
    11    8   34 1
    12    8   35 1
    13    9   10 2
    14    9   11 1
    15    9   12 1
    16    9   13 1
    17   13   14 1
    18   14   15 1
    19   14   36 1
    20   14   37 1
    21   15   16 1
    22   15   17 1
    23   15   38 1
    24   16   21 1
    25   17   18 1
    26   17   19 1
    27   17   39 1
    28   18   40 1
    29   19   20 1
    30   19   21 1
    31   19   41 1
    32   20   42 1
    33   21   22 1
    34   21   43 1
    35   22   23 ar
    36   22   31 ar
    37   23   24 ar
    38   23   44 1
    39   24   25 ar
    40   25   26 ar
    41   25   31 ar
    42   26   27 1
    43   26   28 ar
    44   27   45 1
    45   27   46 1
    46   28   29 ar
    47   28   48 1
    48   29   30 ar
    49   29   47 1
    50   30   31 ar
@<TRIPOS>SUBSTRUCTURE
     1 ACP         1 GROUP 0 A     ****
@<TRIPOS>MOLECULE
[[5-(6-amino-1,8-dihydropurine-6,8-diylium-7-id-9-yl)-3,4-dihydroxy-tetrahydrofuran-2-yl]methoxy-oxido-phosphoryl]oxy-(phosphonomethyl)phosphinate
   48    50     1     0     0
SMALL
USER_CHARGES

@<TRIPOS>ATOM
      1 PG          6.4598   -0.8367   -5.1896 P.3       1 ACP         1.6558
      2 O1G         7.6011    0.1200   -5.3613 O.2       1 ACP        -0.9020
      3 O2G         5.8460   -0.9240   -3.6977 O.3       1 ACP        -0.8036
      4 O3G         6.7847   -2.3759   -5.5569 O.3       1 ACP        -0.8036
      5 PB          3.4755   -1.4893   -6.1885 P.3       1 ACP         1.4945
      6 O1B         3.8620   -2.8895   -6.6052 O.co2     1 ACP        -0.8481
      7 O2B         2.4012   -0.7022   -6.9026 O.co2     1 ACP        -0.8481
      8 C3B         5.0158   -0.4657   -6.2107 C.3       1 ACP        -0.6636
      9 PA          2.1358   -2.2685   -3.6578 P.3       1 ACP         1.6023
     10 O1A         2.4845   -3.7405   -3.7033 O.co2     1 ACP        -0.8673
     11 O2A         0.7432   -1.7950   -4.0135 O.co2     1 ACP        -0.8673
     12 O3A         3.2094   -1.4534   -4.5800 O.3       1 ACP        -0.8150
     13 O5'         2.5238   -1.6632   -2.1888 O.3       1 ACP        -0.5522
     14 C5'         2.2816   -0.2918   -1.9206 C.3       1 ACP         0.2181
     15 C4'         2.7248    0.0226   -0.4980 C.3       1 ACP         0.0915
     16 O4'         2.4697    1.4219   -0.2462 O.3       1 ACP        -0.3675
     17 C3'         1.9404   -0.7419    0.5596 C.3       1 ACP         0.0748
     18 O3'         2.7418   -0.8086    1.7389 O.3       1 ACP        -0.5646
     19 C2'         0.7477    0.1630    0.7858 C.3       1 ACP         0.0804
     20 O2'         0.1373   -0.0577    2.0407 O.3       1 ACP        -0.5882
     21 C1'         1.3733    1.5427    0.6747 C.3       1 ACP         0.3809
     22 N9          0.4520    2.5240    0.1767 N.pl3     1 ACP        -0.4412
     23 C8          0.5793    3.3338   -1.1209 C.ar      1 ACP         0.1936
     24 N7         -0.4807    4.1508   -1.2458 N.2       1 ACP        -0.2746
     25 C5         -1.1921    3.8572   -0.1126 C.ar      1 ACP        -0.1386
     26 C6         -2.4855    4.5203    0.2163 C.ar      1 ACP         0.4778
     27 N6         -2.9873    5.4319   -0.6020 N.pl3     1 ACP        -0.8290
     28 N1         -3.0414    4.1119    1.3596 N.pl3     1 ACP        -0.6985
     29 C2         -2.4169    3.1071    2.1904 C.ar      1 ACP         0.6179
     30 N3         -1.2928    2.5191    1.9210 N.ar      1 ACP        -0.5105
     31 C4         -0.7202    2.9326    0.7534 C.ar      1 ACP         0.2753
     32 HOG2        6.4295   -1.2002   -2.9593 H         1 ACP         0.4487
     33 HOG3        7.4920   -2.8431   -5.0634 H         1 ACP         0.4487
     34 H3B1        4.6947    0.5544   -5.9717 H         1 ACP         0.1088
     35 H3B2        5.3547   -0.4579   -7.2530 H         1 ACP         0.1088
     36 H5'1        2.8430    0.3138   -2.6391 H         1 ACP         0.0327
     37 H5'2        1.2126   -0.0907   -2.0421 H         1 ACP         0.0327
     38 H4'         3.8046   -0.1390   -0.4011 H         1 ACP         0.1275
     39 H3'         1.6787   -1.7627    0.2719 H         1 ACP         0.0637
     40 HO3'        3.5553   -1.2733    1.4913 H         1 ACP         0.4127
     41 H2'         0.0002   -0.0084   -0.0014 H         1 ACP         0.0692
     42 HO2'        0.8091    0.1203    2.7213 H         1 ACP         0.4431
     43 H1'         1.7718    1.9211    1.6015 H         1 ACP         0.1199
     44 H8          1.3565    3.3309   -1.8916 H         1 ACP         0.2941
     45 HN61       -2.4952    5.6785   -1.4487 H         1 ACP         0.4754
     46 HN62       -3.8637    5.8828   -0.3819 H         1 ACP         0.4754
     47 H2         -2.9911    2.8734    3.1000 H         1 ACP         0.0886
     48 H48        -3.9253    4.5332    1.6302 H         1 ACP         0.4707
@<TRIPOS>BOND
     1    1    2 2
     2    1    3 1
     3    1    4 1
     4    1    8 1
     5    3   32 1
     6    4   33 1
     7    5    6 2
     8    5    7 1
     9    5    8 1
    10    5   12 1
    11    8   34 1
    12    8   35 1
    13    9   10 2
    14    9   11 1
    15    9   12 1
    16    9   13 1
    17   13   14 1
    18   14   15 1
    19   14   36 1
    20   14   37 1
    21   15   16 1
    22   15   17 1
    23   15   38 1
    24   16   21 1
    25   17   18 1
    26   17   19 1
    27   17   39 1
    28   18   40 1
    29   19   20 1
    30   19   21 1
    31   19   41 1
    32   20   42 1
    33   21   22 1
    34   21   43 1
    35   22   23 ar
    36   22   31 ar
    37   23   24 ar
    38   23   44 1
    39   24   25 ar
    40   25   26 ar
    41   25   31 ar
    42   26   27 1
    43   26   28 ar
    44   27   45 1
    45   27   46 1
    46   28   29 ar
    47   28   48 1
    48   29   30 ar
    49   29   47 1
    50   30   31 ar
@<TRIPOS>SUBSTRUCTURE
     1 ACP         1 GROUP 0 A     ****
@<TRIPOS>MOLECULE
[[5-(6-amino-1,8-dihydropurine-6,8-diylium-7-id-9-yl)-3,4-dihydroxy-tetrahydrofuran-2-yl]methoxy-oxido-phosphoryl]oxy-(phosphonomethyl)phosphinate
   48    50     1     0     0
SMALL
USER_CHARGES

@<TRIPOS>ATOM
      1 PG          4.9085   -4.4479   -1.4553 P.3       1 ACP         1.6558
      2 O1G         4.4130   -3.2196   -0.7531 O.2       1 ACP        -0.9020
      3 O2G         3.7888   -5.5714   -1.7618 O.3       1 ACP        -0.8036
      4 O3G         6.0671   -5.2674   -0.6834 O.3       1 ACP        -0.8036
      5 PB          4.6995   -3.3625   -4.4733 P.3       1 ACP         1.4945
      6 O1B         3.5217   -4.2605   -4.7732 O.co2     1 ACP        -0.8481
      7 O2B         5.7057   -2.9707   -5.5305 O.co2     1 ACP        -0.8481
      8 C3B         5.6374   -4.1354   -3.0791 C.3       1 ACP        -0.6636
      9 PA          3.4810   -0.6670   -4.2373 P.3       1 ACP         1.6023
     10 O1A         2.1230   -1.0218   -4.8033 O.co2     1 ACP        -0.8673
     11 O2A         4.4926    0.0849   -5.0747 O.co2     1 ACP        -0.8673
     12 O3A         4.1836   -2.0330   -3.6824 O.3       1 ACP        -0.8150
     13 O5'         3.2885    0.1337   -2.8242 O.3       1 ACP        -0.5522
     14 C5'         2.2816   -0.2918   -1.9206 C.3       1 ACP         0.2181
     15 C4'         2.7248    0.0226   -0.4980 C.3       1 ACP         0.0915
     16 O4'         2.4697    1.4219   -0.2462 O.3       1 ACP        -0.3675
     17 C3'         1.9404   -0.7419    0.5596 C.3       1 ACP         0.0748
     18 O3'         2.7418   -0.8086    1.7389 O.3       1 ACP        -0.5646
     19 C2'         0.7477    0.1630    0.7858 C.3       1 ACP         0.0804
     20 O2'         0.1373   -0.0577    2.0407 O.3       1 ACP        -0.5882
     21 C1'         1.3733    1.5427    0.6747 C.3       1 ACP         0.3809
     22 N9          0.4520    2.5240    0.1767 N.pl3     1 ACP        -0.4412
     23 C8         -1.0660    2.5608    0.3999 C.ar      1 ACP         0.1936
     24 N7         -1.5852    3.6333   -0.2221 N.2       1 ACP        -0.2746
     25 C5         -0.4682    4.1996   -0.7771 C.ar      1 ACP        -0.1386
     26 C6         -0.5216    5.4476   -1.5899 C.ar      1 ACP         0.4778
     27 N6         -1.6813    6.0510   -1.7982 N.pl3     1 ACP        -0.8290
     28 N1          0.6621    5.8575   -2.0523 N.pl3     1 ACP        -0.6985
     29 C2          1.8795    5.1301   -1.7717 C.ar      1 ACP         0.6179
     30 N3          1.9458    4.0434   -1.0670 N.ar      1 ACP        -0.5105
     31 C4          0.7388    3.6199   -0.5917 C.ar      1 ACP         0.2753
     32 HOG2        3.3012   -5.9733   -1.0116 H         1 ACP         0.4487
     33 HOG3        5.8794   -5.6290    0.2088 H         1 ACP         0.4487
     34 H3B1        6.5185   -3.5012   -2.9299 H         1 ACP         0.1088
     35 H3B2        5.9976   -5.0985   -3.4586 H         1 ACP         0.1088
     36 H5'1        1.3501    0.2325   -2.1561 H         1 ACP         0.0327
     37 H5'2        2.1268   -1.3683   -2.0445 H         1 ACP         0.0327
     38 H4'         3.8046   -0.1390   -0.4011 H         1 ACP         0.1275
     39 H3'         1.6787   -1.7627    0.2719 H         1 ACP         0.0637
     40 HO3'        2.2231   -1.2979    2.3952 H         1 ACP         0.4127
     41 H2'         0.0002   -0.0084   -0.0014 H         1 ACP         0.0692
     42 HO2'       -0.1554   -0.9852    2.0577 H         1 ACP         0.4431
     43 H1'         1.7718    1.9211    1.6015 H         1 ACP         0.1199
     44 H8         -1.7235    1.8833    0.9537 H         1 ACP         0.2941
     45 HN61       -2.5296    5.6672   -1.4072 H         1 ACP         0.4754
     46 HN62       -1.7205    6.8969   -2.3483 H         1 ACP         0.4754
     47 H2          2.7750    5.5878   -2.2190 H         1 ACP         0.0886
     48 H48         0.6808    6.7046   -2.6128 H         1 ACP         0.4707
@<TRIPOS>BOND
     1    1    2 2
     2    1    3 1
     3    1    4 1
     4    1    8 1
     5    3   32 1
     6    4   33 1
     7    5    6 2
     8    5    7 1
     9    5    8 1
    10    5   12 1
    11    8   34 1
    12    8   35 1
    13    9   10 2
    14    9   11 1
    15    9   12 1
    16    9   13 1
    17   13   14 1
    18   14   15 1
    19   14   36 1
    20   14   37 1
    21   15   16 1
    22   15   17 1
    23   15   38 1
    24   16   21 1
    25   17   18 1
    26   17   19 1
    27   17   39 1
    28   18   40 1
    29   19   20 1
    30   19   21 1
    31   19   41 1
    32   20   42 1
    33   21   22 1
    34   21   43 1
    35   22   23 ar
    36   22   31 ar
    37   23   24 ar
    38   23   44 1
    39   24   25 ar
    40   25   26 ar
    41   25   31 ar
    42   26   27 1
    43   26   28 ar
    44   27   45 1
    45   27   46 1
    46   28   29 ar
    47   28   48 1
    48   29   30 ar
    49   29   47 1
    50   30   31 ar
@<TRIPOS>SUBSTRUCTURE
     1 ACP         1 GROUP 0 A     ****
@<TRIPOS>MOLECULE
[[5-(6-amino-1,8-dihydropurine-6,8-diylium-7-id-9-yl)-3,4-dihydroxy-tetrahydrofuran-2-yl]methoxy-oxido-phosphoryl]oxy-(phosphonomethyl)phosphinate
   48    50     1     0     0
SMALL
USER_CHARGES

@<TRIPOS>ATOM
      1 PG          4.4185   -3.8238   -6.6382 P.3       1 ACP         1.6558
      2 O1G         2.9198   -3.8180   -6.6695 O.2       1 ACP        -0.9020
      3 O2G         5.1403   -2.9622   -7.7987 O.3       1 ACP        -0.8036
      4 O3G         5.1085   -5.2793   -6.7614 O.3       1 ACP        -0.8036
      5 PB          4.8394   -1.4237   -4.5425 P.3       1 ACP         1.4945
      6 O1B         5.3526   -0.4981   -5.6212 O.co2     1 ACP        -0.8481
      7 O2B         5.3169   -1.3382   -3.1113 O.co2     1 ACP        -0.8481
      8 C3B         5.1352   -3.1558   -5.1197 C.3       1 ACP        -0.6636
      9 PA          2.1358   -2.2685   -3.6578 P.3       1 ACP         1.6023
     10 O1A         2.4845   -3.7405   -3.7033 O.co2     1 ACP        -0.8673
     11 O2A         0.7432   -1.7950   -4.0135 O.co2     1 ACP        -0.8673
     12 O3A         3.2094   -1.4534   -4.5800 O.3       1 ACP        -0.8150
     13 O5'         2.5238   -1.6632   -2.1888 O.3       1 ACP        -0.5522
     14 C5'         2.2816   -0.2918   -1.9206 C.3       1 ACP         0.2181
     15 C4'         2.7248    0.0226   -0.4980 C.3       1 ACP         0.0915
     16 O4'         2.4697    1.4219   -0.2462 O.3       1 ACP        -0.3675
     17 C3'         1.9404   -0.7419    0.5596 C.3       1 ACP         0.0748
     18 O3'         2.7418   -0.8086    1.7389 O.3       1 ACP        -0.5646
     19 C2'         0.7477    0.1630    0.7858 C.3       1 ACP         0.0804
     20 O2'         0.1373   -0.0577    2.0407 O.3       1 ACP        -0.5882
     21 C1'         1.3733    1.5427    0.6747 C.3       1 ACP         0.3809
     22 N9          0.4520    2.5240    0.1767 N.pl3     1 ACP        -0.4412
     23 C8          0.1798    2.8712   -1.2933 C.ar      1 ACP         0.1936
     24 N7         -0.7494    3.8400   -1.3610 N.2       1 ACP        -0.2746
     25 C5         -1.0173    4.0603   -0.0358 C.ar      1 ACP        -0.1386
     26 C6         -2.0105    5.0717    0.4241 C.ar      1 ACP         0.4778
     27 N6         -2.6723    5.7982   -0.4628 N.pl3     1 ACP        -0.8290
     28 N1         -2.1445    5.1522    1.7502 N.pl3     1 ACP        -0.6985
     29 C2         -1.3755    4.3143    2.6426 C.ar      1 ACP         0.6179
     30 N3         -0.5075    3.4292    2.2616 N.ar      1 ACP        -0.5105
     31 C4         -0.3667    3.3425    0.9070 C.ar      1 ACP         0.2753
     32 HOG2        4.9756   -3.1969   -8.7367 H         1 ACP         0.4487
     33 HOG3        4.9394   -5.8190   -7.5628 H         1 ACP         0.4487
     34 H3B1        4.8171   -3.8000   -4.2923 H         1 ACP         0.1088
     35 H3B2        6.2227   -3.2606   -5.2063 H         1 ACP         0.1088
     36 H5'1        2.8430    0.3138   -2.6391 H         1 ACP         0.0327
     37 H5'2        1.2126   -0.0907   -2.0421 H         1 ACP         0.0327
     38 H4'         3.8046   -0.1390   -0.4011 H         1 ACP         0.1275
     39 H3'         1.6787   -1.7627    0.2719 H         1 ACP         0.0637
     40 HO3'        2.2231   -1.2979    2.3952 H         1 ACP         0.4127
     41 H2'         0.0002   -0.0084   -0.0014 H         1 ACP         0.0692
     42 HO2'       -0.6132    0.5577    2.1063 H         1 ACP         0.4431
     43 H1'         1.7718    1.9211    1.6015 H         1 ACP         0.1199
     44 H8          0.6089    2.4651   -2.2147 H         1 ACP         0.2941
     45 HN61       -2.5055    5.6680   -1.4503 H         1 ACP         0.4754
     46 HN62       -3.3462    6.4841   -0.1542 H         1 ACP         0.4754
     47 H2         -1.5932    4.4937    3.7066 H         1 ACP         0.0886
     48 H48        -2.8098    5.8270    2.1160 H         1 ACP         0.4707
@<TRIPOS>BOND
     1    1    2 2
     2    1    3 1
     3    1    4 1
     4    1    8 1
     5    3   32 1
     6    4   33 1
     7    5    6 2
     8    5    7 1
     9    5    8 1
    10    5   12 1
    11    8   34 1
    12    8   35 1
    13    9   10 2
    14    9   11 1
    15    9   12 1
    16    9   13 1
    17   13   14 1
    18   14   15 1
    19   14   36 1
    20   14   37 1
    21   15   16 1
    22   15   17 1
    23   15   38 1
    24   16   21 1
    25   17   18 1
    26   17   19 1
    27   17   39 1
    28   18   40 1
    29   19   20 1
    30   19   21 1
    31   19   41 1
    32   20   42 1
    33   21   22 1
    34   21   43 1
    35   22   23 ar
    36   22   31 ar
    37   23   24 ar
    38   23   44 1
    39   24   25 ar
    40   25   26 ar
    41   25   31 ar
    42   26   27 1
    43   26   28 ar
    44   27   45 1
    45   27   46 1
    46   28   29 ar
    47   28   48 1
    48   29   30 ar
    49   29   47 1
    50   30   31 ar
@<TRIPOS>SUBSTRUCTURE
     1 ACP         1 GROUP 0 A     ****
@<TRIPOS>MOLECULE
[[5-(6-amino-1,8-dihydropurine-6,8-diylium-7-id-9-yl)-3,4-dihydroxy-tetrahydrofuran-2-yl]methoxy-oxido-phosphoryl]oxy-(phosphonomethyl)phosphinate
   48    50     1     0     0
SMALL
USER_CHARGES

@<TRIPOS>ATOM
      1 PG          0.0518   -3.2697   -4.2584 P.3       1 ACP         1.6558
      2 O1G         0.7441   -2.8445   -2.9985 O.2       1 ACP        -0.9020
      3 O2G        -1.4631   -2.7358   -4.4319 O.3       1 ACP        -0.8036
      4 O3G        -0.0816   -4.8656   -4.4709 O.3       1 ACP        -0.8036
      5 PB          1.1350   -0.9349   -6.1834 P.3       1 ACP         1.4945
      6 O1B        -0.2233   -0.2750   -6.2390 O.co2     1 ACP        -0.8481
      7 O2B         2.1070   -0.8802   -7.3391 O.co2     1 ACP        -0.8481
      8 C3B         0.8619   -2.7185   -5.7768 C.3       1 ACP        -0.6636
      9 PA          2.3308    0.9611   -4.2388 P.3       1 ACP         1.6023
     10 O1A         1.0771    1.7604   -3.9568 O.co2     1 ACP        -0.8673
     11 O2A         3.4129    1.5166   -5.1392 O.co2     1 ACP        -0.8673
     12 O3A         1.8925   -0.5072   -4.8040 O.3       1 ACP        -0.8150
     13 O5'         3.0199    0.5139   -2.8245 O.3       1 ACP        -0.5522
     14 C5'         2.2816   -0.2918   -1.9206 C.3       1 ACP         0.2181
     15 C4'         2.7248    0.0226   -0.4980 C.3       1 ACP         0.0915
     16 O4'         2.4697    1.4219   -0.2462 O.3       1 ACP        -0.3675
     17 C3'         1.9404   -0.7419    0.5596 C.3       1 ACP         0.0748
     18 O3'         2.7418   -0.8086    1.7389 O.3       1 ACP        -0.5646
     19 C2'         0.7477    0.1630    0.7858 C.3       1 ACP         0.0804
     20 O2'         0.1373   -0.0577    2.0407 O.3       1 ACP        -0.5882
     21 C1'         1.3733    1.5427    0.6747 C.3       1 ACP         0.3809
     22 N9          0.4520    2.5240    0.1767 N.pl3     1 ACP        -0.4412
     23 C8          0.5793    3.3338   -1.1209 C.ar      1 ACP         0.1936
     24 N7         -0.4807    4.1508   -1.2458 N.2       1 ACP        -0.2746
     25 C5         -1.1921    3.8572   -0.1126 C.ar      1 ACP        -0.1386
     26 C6         -2.4855    4.5203    0.2163 C.ar      1 ACP         0.4778
     27 N6         -2.9873    5.4319   -0.6020 N.pl3     1 ACP        -0.8290
     28 N1         -3.0414    4.1119    1.3596 N.pl3     1 ACP        -0.6985
     29 C2         -2.4169    3.1071    2.1904 C.ar      1 ACP         0.6179
     30 N3         -1.2928    2.5191    1.9210 N.ar      1 ACP        -0.5105
     31 C4         -0.7202    2.9326    0.7534 C.ar      1 ACP         0.2753
     32 HOG2       -2.1342   -2.9843   -3.7611 H         1 ACP         0.4487
     33 HOG3       -0.5705   -5.3944   -3.8051 H         1 ACP         0.4487
     34 H3B1        1.8538   -3.1831   -5.8102 H         1 ACP         0.1088
     35 H3B2        0.2874   -3.1315   -6.6137 H         1 ACP         0.1088
     36 H5'1        1.2154   -0.0780   -2.0455 H         1 ACP         0.0327
     37 H5'2        2.4646   -1.3453   -2.1548 H         1 ACP         0.0327
     38 H4'         3.8046   -0.1390   -0.4011 H         1 ACP         0.1275
     39 H3'         1.6787   -1.7627    0.2719 H         1 ACP         0.0637
     40 HO3'        2.2231   -1.2979    2.3952 H         1 ACP         0.4127
     41 H2'         0.0002   -0.0084   -0.0014 H         1 ACP         0.0692
     42 HO2'       -0.1554   -0.9852    2.0577 H         1 ACP         0.4431
     43 H1'         1.7718    1.9211    1.6015 H         1 ACP         0.1199
     44 H8          1.3565    3.3309   -1.8916 H         1 ACP         0.2941
     45 HN61       -2.4952    5.6785   -1.4487 H         1 ACP         0.4754
     46 HN62       -3.8637    5.8828   -0.3819 H         1 ACP         0.4754
     47 H2         -2.9911    2.8734    3.1000 H         1 ACP         0.0886
     48 H48        -3.9253    4.5332    1.6302 H         1 ACP         0.4707
@<TRIPOS>BOND
     1    1    2 2
     2    1    3 1
     3    1    4 1
     4    1    8 1
     5    3   32 1
     6    4   33 1
     7    5    6 2
     8    5    7 1
     9    5    8 1
    10    5   12 1
    11    8   34 1
    12    8   35 1
    13    9   10 2
    14    9   11 1
    15    9   12 1
    16    9   13 1
    17   13   14 1
    18   14   15 1
    19   14   36 1
    20   14   37 1
    21   15   16 1
    22   15   17 1
    23   15   38 1
    24   16   21 1
    25   17   18 1
    26   17   19 1
    27   17   39 1
    28   18   40 1
    29   19   20 1
    30   19   21 1
    31   19   41 1
    32   20   42 1
    33   21   22 1
    34   21   43 1
    35   22   23 ar
    36   22   31 ar
    37   23   24 ar
    38   23   44 1
    39   24   25 ar
    40   25   26 ar
    41   25   31 ar
    42   26   27 1
    43   26   28 ar
    44   27   45 1
    45   27   46 1
    46   28   29 ar
    47   28   48 1
    48   29   30 ar
    49   29   47 1
    50   30   31 ar
@<TRIPOS>SUBSTRUCTURE
     1 ACP         1 GROUP 0 A     ****
@<TRIPOS>MOLECULE
[[5-(6-amino-1,8-dihydropurine-6,8-diylium-7-id-9-yl)-3,4-dihydroxy-tetrahydrofuran-2-yl]methoxy-oxido-phosphoryl]oxy-(phosphonomethyl)phosphinate
   48    50     1     0     0
SMALL
USER_CHARGES

@<TRIPOS>ATOM
      1 PG          4.9111   -5.3163   -3.5964 P.3       1 ACP         1.6558
      2 O1G         3.6424   -5.0810   -4.3596 O.2       1 ACP        -0.9020
      3 O2G         6.2520   -5.4139   -4.4924 O.3       1 ACP        -0.8036
      4 O3G         4.9469   -6.6674   -2.7116 O.3       1 ACP        -0.8036
      5 PB          5.5769   -2.2581   -2.8656 P.3       1 ACP         1.4945
      6 O1B         6.7393   -2.2228   -3.8306 O.co2     1 ACP        -0.8481
      7 O2B         5.5604   -1.4454   -1.5917 O.co2     1 ACP        -0.8481
      8 C3B         5.3086   -4.0265   -2.3948 C.3       1 ACP        -0.6636
      9 PA          3.4810   -0.6670   -4.2373 P.3       1 ACP         1.6023
     10 O1A         2.1230   -1.0218   -4.8033 O.co2     1 ACP        -0.8673
     11 O2A         4.4926    0.0849   -5.0747 O.co2     1 ACP        -0.8673
     12 O3A         4.1836   -2.0330   -3.6824 O.3       1 ACP        -0.8150
     13 O5'         3.2885    0.1337   -2.8242 O.3       1 ACP        -0.5522
     14 C5'         2.2816   -0.2918   -1.9206 C.3       1 ACP         0.2181
     15 C4'         2.7248    0.0226   -0.4980 C.3       1 ACP         0.0915
     16 O4'         2.4697    1.4219   -0.2462 O.3       1 ACP        -0.3675
     17 C3'         1.9404   -0.7419    0.5596 C.3       1 ACP         0.0748
     18 O3'         2.7418   -0.8086    1.7389 O.3       1 ACP        -0.5646
     19 C2'         0.7477    0.1630    0.7858 C.3       1 ACP         0.0804
     20 O2'         0.1373   -0.0577    2.0407 O.3       1 ACP        -0.5882
     21 C1'         1.3733    1.5427    0.6747 C.3       1 ACP         0.3809
     22 N9          0.4520    2.5240    0.1767 N.pl3     1 ACP        -0.4412
     23 C8          0.5793    3.3338   -1.1209 C.ar      1 ACP         0.1936
     24 N7         -0.4807    4.1508   -1.2458 N.2       1 ACP        -0.2746
     25 C5         -1.1921    3.8572   -0.1126 C.ar      1 ACP        -0.1386
     26 C6         -2.4855    4.5203    0.2163 C.ar      1 ACP         0.4778
     27 N6         -2.9873    5.4319   -0.6020 N.pl3     1 ACP        -0.8290
     28 N1         -3.0414    4.1119    1.3596 N.pl3     1 ACP        -0.6985
     29 C2         -2.4169    3.1071    2.1904 C.ar      1 ACP         0.6179
     30 N3         -1.2928    2.5191    1.9210 N.ar      1 ACP        -0.5105
     31 C4         -0.7202    2.9326    0.7534 C.ar      1 ACP         0.2753
     32 HOG2        6.3166   -6.1142   -5.1761 H         1 ACP         0.4487
     33 HOG3        4.8394   -7.5326   -3.1608 H         1 ACP         0.4487
     34 H3B1        4.5084   -4.0135   -1.6462 H         1 ACP         0.1088
     35 H3B2        6.2232   -4.3408   -1.8792 H         1 ACP         0.1088
     36 H5'1        1.3501    0.2325   -2.1561 H         1 ACP         0.0327
     37 H5'2        2.1268   -1.3683   -2.0445 H         1 ACP         0.0327
     38 H4'         3.8046   -0.1390   -0.4011 H         1 ACP         0.1275
     39 H3'         1.6787   -1.7627    0.2719 H         1 ACP         0.0637
     40 HO3'        2.2231   -1.2979    2.3952 H         1 ACP         0.4127
     41 H2'         0.0002   -0.0084   -0.0014 H         1 ACP         0.0692
     42 HO2'       -0.1554   -0.9852    2.0577 H         1 ACP         0.4431
     43 H1'         1.7718    1.9211    1.6015 H         1 ACP         0.1199
     44 H8          1.3565    3.3309   -1.8916 H         1 ACP         0.2941
     45 HN61       -2.4952    5.6785   -1.4487 H         1 ACP         0.4754
     46 HN62       -3.8637    5.8828   -0.3819 H         1 ACP         0.4754
     47 H2         -2.9911    2.8734    3.1000 H         1 ACP         0.0886
     48 H48        -3.9253    4.5332    1.6302 H         1 ACP         0.4707
@<TRIPOS>BOND
     1    1    2 2
     2    1    3 1
     3    1    4 1
     4    1    8 1
     5    3   32 1
     6    4   33 1
     7    5    6 2
     8    5    7 1
     9    5    8 1
    10    5   12 1
    11    8   34 1
    12    8   35 1
    13    9   10 2
    14    9   11 1
    15    9   12 1
    16    9   13 1
    17   13   14 1
    18   14   15 1
    19   14   36 1
    20   14   37 1
    21   15   16 1
    22   15   17 1
    23   15   38 1
    24   16   21 1
    25   17   18 1
    26   17   19 1
    27   17   39 1
    28   18   40 1
    29   19   20 1
    30   19   21 1
    31   19   41 1
    32   20   42 1
    33   21   22 1
    34   21   43 1
    35   22   23 ar
    36   22   31 ar
    37   23   24 ar
    38   23   44 1
    39   24   25 ar
    40   25   26 ar
    41   25   31 ar
    42   26   27 1
    43   26   28 ar
    44   27   45 1
    45   27   46 1
    46   28   29 ar
    47   28   48 1
    48   29   30 ar
    49   29   47 1
    50   30   31 ar
@<TRIPOS>SUBSTRUCTURE
     1 ACP         1 GROUP 0 A     ****
@<TRIPOS>MOLECULE
[[5-(6-amino-1,8-dihydropurine-6,8-diylium-7-id-9-yl)-3,4-dihydroxy-tetrahydrofuran-2-yl]methoxy-oxido-phosphoryl]oxy-(phosphonomethyl)phosphinate
   48    50     1     0     0
SMALL
USER_CHARGES

@<TRIPOS>ATOM
      1 PG          5.9401   -3.5394   -4.5498 P.3       1 ACP         1.6558
      2 O1G         7.0793   -3.1892   -5.4591 O.2       1 ACP        -0.9020
      3 O2G         5.7696   -2.5900   -3.2537 O.3       1 ACP        -0.8036
      4 O3G         5.9842   -5.0289   -3.9259 O.3       1 ACP        -0.8036
      5 PB          3.6212   -1.9264   -6.0829 P.3       1 ACP         1.4945
      6 O1B         2.2542   -2.2679   -6.6291 O.co2     1 ACP        -0.8481
      7 O2B         4.7052   -1.3188   -6.9427 O.co2     1 ACP        -0.8481
      8 C3B         4.3127   -3.4688   -5.3321 C.3       1 ACP        -0.6636
      9 PA          2.7380    0.3741   -4.4295 P.3       1 ACP         1.6023
     10 O1A         1.2513    0.2198   -4.6674 O.co2     1 ACP        -0.8673
     11 O2A         3.5254    1.4501   -5.1452 O.co2     1 ACP        -0.8673
     12 O3A         3.4589   -1.0647   -4.7080 O.3       1 ACP        -0.8150
     13 O5'         3.0199    0.5139   -2.8245 O.3       1 ACP        -0.5522
     14 C5'         2.2816   -0.2918   -1.9206 C.3       1 ACP         0.2181
     15 C4'         2.7248    0.0226   -0.4980 C.3       1 ACP         0.0915
     16 O4'         2.4697    1.4219   -0.2462 O.3       1 ACP        -0.3675
     17 C3'         1.9404   -0.7419    0.5596 C.3       1 ACP         0.0748
     18 O3'         2.7418   -0.8086    1.7389 O.3       1 ACP        -0.5646
     19 C2'         0.7477    0.1630    0.7858 C.3       1 ACP         0.0804
     20 O2'         0.1373   -0.0577    2.0407 O.3       1 ACP        -0.5882
     21 C1'         1.3733    1.5427    0.6747 C.3       1 ACP         0.3809
     22 N9          0.4520    2.5240    0.1767 N.pl3     1 ACP        -0.4412
     23 C8         -0.7463    2.2774   -0.7501 C.ar      1 ACP         0.1936
     24 N7         -1.3714    3.4419   -0.9948 N.2       1 ACP        -0.2746
     25 C5         -0.6104    4.3223   -0.2723 C.ar      1 ACP        -0.1386
     26 C6         -0.9062    5.7820   -0.2194 C.ar      1 ACP         0.4778
     27 N6         -1.9385    6.2713   -0.8881 N.pl3     1 ACP        -0.8290
     28 N1         -0.0613    6.4906    0.5336 N.pl3     1 ACP        -0.6985
     29 C2          1.0416    5.8662    1.2291 C.ar      1 ACP         0.6179
     30 N3          1.3146    4.5989    1.1954 N.ar      1 ACP        -0.5105
     31 C4          0.4541    3.8697    0.4273 C.ar      1 ACP         0.2753
     32 HOG2        6.5065   -2.5289   -2.6093 H         1 ACP         0.4487
     33 HOG3        6.7495   -5.2889   -3.3703 H         1 ACP         0.4487
     34 H3B1        4.2970   -4.2179   -6.1318 H         1 ACP         0.1088
     35 H3B2        3.5823   -3.7889   -4.5803 H         1 ACP         0.1088
     36 H5'1        1.2154   -0.0780   -2.0455 H         1 ACP         0.0327
     37 H5'2        2.4646   -1.3453   -2.1548 H         1 ACP         0.0327
     38 H4'         3.8046   -0.1390   -0.4011 H         1 ACP         0.1275
     39 H3'         1.6787   -1.7627    0.2719 H         1 ACP         0.0637
     40 HO3'        2.2231   -1.2979    2.3952 H         1 ACP         0.4127
     41 H2'         0.0002   -0.0084   -0.0014 H         1 ACP         0.0692
     42 HO2'       -0.1554   -0.9852    2.0577 H         1 ACP         0.4431
     43 H1'         1.7718    1.9211    1.6015 H         1 ACP         0.1199
     44 H8         -1.1244    1.3534   -1.1987 H         1 ACP         0.2941
     45 HN61       -2.5259    5.6573   -1.4336 H         1 ACP         0.4754
     46 HN62       -2.1416    7.2600   -0.8539 H         1 ACP         0.4754
     47 H2          1.6509    6.5764    1.8088 H         1 ACP         0.0886
     48 H48        -0.2190    7.4917    0.6033 H         1 ACP         0.4707
@<TRIPOS>BOND
     1    1    2 2
     2    1    3 1
     3    1    4 1
     4    1    8 1
     5    3   32 1
     6    4   33 1
     7    5    6 2
     8    5    7 1
     9    5    8 1
    10    5   12 1
    11    8   34 1
    12    8   35 1
    13    9   10 2
    14    9   11 1
    15    9   12 1
    16    9   13 1
    17   13   14 1
    18   14   15 1
    19   14   36 1
    20   14   37 1
    21   15   16 1
    22   15   17 1
    23   15   38 1
    24   16   21 1
    25   17   18 1
    26   17   19 1
    27   17   39 1
    28   18   40 1
    29   19   20 1
    30   19   21 1
    31   19   41 1
    32   20   42 1
    33   21   22 1
    34   21   43 1
    35   22   23 ar
    36   22   31 ar
    37   23   24 ar
    38   23   44 1
    39   24   25 ar
    40   25   26 ar
    41   25   31 ar
    42   26   27 1
    43   26   28 ar
    44   27   45 1
    45   27   46 1
    46   28   29 ar
    47   28   48 1
    48   29   30 ar
    49   29   47 1
    50   30   31 ar
@<TRIPOS>SUBSTRUCTURE
     1 ACP         1 GROUP 0 A     ****
@<TRIPOS>MOLECULE
[[5-(6-amino-1,8-dihydropurine-6,8-diylium-7-id-9-yl)-3,4-dihydroxy-tetrahydrofuran-2-yl]methoxy-oxido-phosphoryl]oxy-(phosphonomethyl)phosphinate
   48    50     1     0     0
SMALL
USER_CHARGES

@<TRIPOS>ATOM
      1 PG          7.1590   -1.1859   -5.9446 P.3       1 ACP         1.6558
      2 O1G         8.0566   -0.2734   -6.7250 O.2       1 ACP        -0.9020
      3 O2G         7.7257   -2.6801   -5.7070 O.3       1 ACP        -0.8036
      4 O3G         5.6961   -1.4320   -6.5840 O.3       1 ACP        -0.8036
      5 PB          5.7038   -1.5526   -3.1025 P.3       1 ACP         1.4945
      6 O1B         5.6354   -0.7582   -1.8188 O.co2     1 ACP        -0.8481
      7 O2B         6.1506   -2.9958   -3.1357 O.co2     1 ACP        -0.8481
      8 C3B         6.7861   -0.6133   -4.2717 C.3       1 ACP        -0.6636
      9 PA          2.8590   -2.1285   -3.7205 P.3       1 ACP         1.6023
     10 O1A         3.0780   -3.6257   -3.7547 O.co2     1 ACP        -0.8673
     11 O2A         1.8554   -1.4750   -4.6455 O.co2     1 ACP        -0.8673
     12 O3A         4.3020   -1.3896   -3.9195 O.3       1 ACP        -0.8150
     13 O5'         2.5238   -1.6632   -2.1888 O.3       1 ACP        -0.5522
     14 C5'         2.2816   -0.2918   -1.9206 C.3       1 ACP         0.2181
     15 C4'         2.7248    0.0226   -0.4980 C.3       1 ACP         0.0915
     16 O4'         2.4697    1.4219   -0.2462 O.3       1 ACP        -0.3675
     17 C3'         1.9404   -0.7419    0.5596 C.3       1 ACP         0.0748
     18 O3'         2.7418   -0.8086    1.7389 O.3       1 ACP        -0.5646
     19 C2'         0.7477    0.1630    0.7858 C.3       1 ACP         0.0804
     20 O2'         0.1373   -0.0577    2.0407 O.3       1 ACP        -0.5882
     21 C1'         1.3733    1.5427    0.6747 C.3       1 ACP         0.3809
     22 N9          0.4520    2.5240    0.1767 N.pl3     1 ACP        -0.4412
     23 C8          0.1798    2.8712   -1.2933 C.ar      1 ACP         0.1936
     24 N7         -0.7494    3.8400   -1.3610 N.2       1 ACP        -0.2746
     25 C5         -1.0173    4.0603   -0.0358 C.ar      1 ACP        -0.1386
     26 C6         -2.0105    5.0717    0.4241 C.ar      1 ACP         0.4778
     27 N6         -2.6723    5.7982   -0.4628 N.pl3     1 ACP        -0.8290
     28 N1         -2.1445    5.1522    1.7502 N.pl3     1 ACP        -0.6985
     29 C2         -1.3755    4.3143    2.6426 C.ar      1 ACP         0.6179
     30 N3         -0.5075    3.4292    2.2616 N.ar      1 ACP        -0.5105
     31 C4         -0.3667    3.3425    0.9070 C.ar      1 ACP         0.2753
     32 HOG2        7.9258   -3.2417   -6.4858 H         1 ACP         0.4487
     33 HOG3        5.6291   -1.8291   -7.4784 H         1 ACP         0.4487
     34 H3B1        7.7391   -0.4796   -3.7475 H         1 ACP         0.1088
     35 H3B2        6.3321    0.3796   -4.3674 H         1 ACP         0.1088
     36 H5'1        2.8430    0.3138   -2.6391 H         1 ACP         0.0327
     37 H5'2        1.2126   -0.0907   -2.0421 H         1 ACP         0.0327
     38 H4'         3.8046   -0.1390   -0.4011 H         1 ACP         0.1275
     39 H3'         1.6787   -1.7627    0.2719 H         1 ACP         0.0637
     40 HO3'        3.5553   -1.2733    1.4913 H         1 ACP         0.4127
     41 H2'         0.0002   -0.0084   -0.0014 H         1 ACP         0.0692
     42 HO2'       -0.6132    0.5577    2.1063 H         1 ACP         0.4431
     43 H1'         1.7718    1.9211    1.6015 H         1 ACP         0.1199
     44 H8          0.6089    2.4651   -2.2147 H         1 ACP         0.2941
     45 HN61       -2.5055    5.6680   -1.4503 H         1 ACP         0.4754
     46 HN62       -3.3462    6.4841   -0.1542 H         1 ACP         0.4754
     47 H2         -1.5932    4.4937    3.7066 H         1 ACP         0.0886
     48 H48        -2.8098    5.8270    2.1160 H         1 ACP         0.4707
@<TRIPOS>BOND
     1    1    2 2
     2    1    3 1
     3    1    4 1
     4    1    8 1
     5    3   32 1
     6    4   33 1
     7    5    6 2
     8    5    7 1
     9    5    8 1
    10    5   12 1
    11    8   34 1
    12    8   35 1
    13    9   10 2
    14    9   11 1
    15    9   12 1
    16    9   13 1
    17   13   14 1
    18   14   15 1
    19   14   36 1
    20   14   37 1
    21   15   16 1
    22   15   17 1
    23   15   38 1
    24   16   21 1
    25   17   18 1
    26   17   19 1
    27   17   39 1
    28   18   40 1
    29   19   20 1
    30   19   21 1
    31   19   41 1
    32   20   42 1
    33   21   22 1
    34   21   43 1
    35   22   23 ar
    36   22   31 ar
    37   23   24 ar
    38   23   44 1
    39   24   25 ar
    40   25   26 ar
    41   25   31 ar
    42   26   27 1
    43   26   28 ar
    44   27   45 1
    45   27   46 1
    46   28   29 ar
    47   28   48 1
    48   29   30 ar
    49   29   47 1
    50   30   31 ar
@<TRIPOS>SUBSTRUCTURE
     1 ACP         1 GROUP 0 A     ****
@<TRIPOS>MOLECULE
[[5-(6-amino-1,8-dihydropurine-6,8-diylium-7-id-9-yl)-3,4-dihydroxy-tetrahydrofuran-2-yl]methoxy-oxido-phosphoryl]oxy-(phosphonomethyl)phosphinate
   48    50     1     0     0
SMALL
USER_CHARGES

@<TRIPOS>ATOM
      1 PG          0.7523    1.4220   -6.1474 P.3       1 ACP         1.6558
      2 O1G         1.0312    2.7603   -6.7624 O.2       1 ACP        -0.9020
      3 O2G        -0.7644    0.8881   -6.3053 O.3       1 ACP        -0.8036
      4 O3G         1.0275    1.3185   -4.5589 O.3       1 ACP        -0.8036
      5 PB          1.5908   -1.6793   -6.2417 P.3       1 ACP         1.4945
      6 O1B         2.5716   -2.5043   -7.0422 O.co2     1 ACP        -0.8481
      7 O2B         0.1174   -2.0100   -6.1824 O.co2     1 ACP        -0.8481
      8 C3B         1.7403    0.0693   -6.8254 C.3       1 ACP        -0.6636
      9 PA          2.1608   -2.4473   -3.4325 P.3       1 ACP         1.6023
     10 O1A         3.0332   -3.6461   -3.7362 O.co2     1 ACP        -0.8673
     11 O2A         0.7286   -2.6312   -2.9798 O.co2     1 ACP        -0.8673
     12 O3A         2.1683   -1.4588   -4.7327 O.3       1 ACP        -0.8150
     13 O5'         2.9203   -1.4822   -2.3523 O.3       1 ACP        -0.5522
     14 C5'         2.2816   -0.2918   -1.9206 C.3       1 ACP         0.2181
     15 C4'         2.7248    0.0226   -0.4980 C.3       1 ACP         0.0915
     16 O4'         2.4697    1.4219   -0.2462 O.3       1 ACP        -0.3675
     17 C3'         1.9404   -0.7419    0.5596 C.3       1 ACP         0.0748
     18 O3'         2.7418   -0.8086    1.7389 O.3       1 ACP        -0.5646
     19 C2'         0.7477    0.1630    0.7858 C.3       1 ACP         0.0804
     20 O2'         0.1373   -0.0577    2.0407 O.3       1 ACP        -0.5882
     21 C1'         1.3733    1.5427    0.6747 C.3       1 ACP         0.3809
     22 N9          0.4520    2.5240    0.1767 N.pl3     1 ACP        -0.4412
     23 C8         -0.3054    2.4845   -1.1576 C.ar      1 ACP         0.1936
     24 N7         -1.0755    3.5806   -1.2691 N.2       1 ACP        -0.2746
     25 C5         -0.8043    4.2306   -0.0942 C.ar      1 ACP        -0.1386
     26 C6         -1.4324    5.5335    0.2646 C.ar      1 ACP         0.4778
     27 N6         -2.2885    6.1054   -0.5675 N.pl3     1 ACP        -0.8290
     28 N1         -1.0537    6.0229    1.4478 N.pl3     1 ACP        -0.6985
     29 C2         -0.1096    5.3242    2.2908 C.ar      1 ACP         0.6179
     30 N3          0.4468    4.1904    1.9960 N.ar      1 ACP        -0.5105
     31 C4          0.0631    3.6855    0.7877 C.ar      1 ACP         0.2753
     32 HOG2       -1.4969    1.4198   -5.9275 H         1 ACP         0.4487
     33 HOG3        0.5310    1.9070   -3.9513 H         1 ACP         0.4487
     34 H3B1        1.5583    0.0355   -7.9055 H         1 ACP         0.1088
     35 H3B2        2.7929    0.3417   -6.6872 H         1 ACP         0.1088
     36 H5'1        2.5581    0.5234   -2.5967 H         1 ACP         0.0327
     37 H5'2        1.1975   -0.4371   -1.9608 H         1 ACP         0.0327
     38 H4'         3.8046   -0.1390   -0.4011 H         1 ACP         0.1275
     39 H3'         1.6787   -1.7627    0.2719 H         1 ACP         0.0637
     40 HO3'        2.2231   -1.2979    2.3952 H         1 ACP         0.4127
     41 H2'         0.0002   -0.0084   -0.0014 H         1 ACP         0.0692
     42 HO2'       -0.1554   -0.9852    2.0577 H         1 ACP         0.4431
     43 H1'         1.7718    1.9211    1.6015 H         1 ACP         0.1199
     44 H8         -0.2991    1.7413   -1.9611 H         1 ACP         0.2941
     45 HN61       -2.5167    5.6603   -1.4447 H         1 ACP         0.4754
     46 HN62       -2.7159    6.9882   -0.3270 H         1 ACP         0.4754
     47 H2          0.1059    5.8491    3.2340 H         1 ACP         0.0886
     48 H48        -1.4532    6.9099    1.7401 H         1 ACP         0.4707
@<TRIPOS>BOND
     1    1    2 2
     2    1    3 1
     3    1    4 1
     4    1    8 1
     5    3   32 1
     6    4   33 1
     7    5    6 2
     8    5    7 1
     9    5    8 1
    10    5   12 1
    11    8   34 1
    12    8   35 1
    13    9   10 2
    14    9   11 1
    15    9   12 1
    16    9   13 1
    17   13   14 1
    18   14   15 1
    19   14   36 1
    20   14   37 1
    21   15   16 1
    22   15   17 1
    23   15   38 1
    24   16   21 1
    25   17   18 1
    26   17   19 1
    27   17   39 1
    28   18   40 1
    29   19   20 1
    30   19   21 1
    31   19   41 1
    32   20   42 1
    33   21   22 1
    34   21   43 1
    35   22   23 ar
    36   22   31 ar
    37   23   24 ar
    38   23   44 1
    39   24   25 ar
    40   25   26 ar
    41   25   31 ar
    42   26   27 1
    43   26   28 ar
    44   27   45 1
    45   27   46 1
    46   28   29 ar
    47   28   48 1
    48   29   30 ar
    49   29   47 1
    50   30   31 ar
@<TRIPOS>SUBSTRUCTURE
     1 ACP         1 GROUP 0 A     ****
@<TRIPOS>MOLECULE
[[5-(6-amino-1,8-dihydropurine-6,8-diylium-7-id-9-yl)-3,4-dihydroxy-tetrahydrofuran-2-yl]methoxy-oxido-phosphoryl]oxy-(phosphonomethyl)phosphinate
   48    50     1     0     0
SMALL
USER_CHARGES

@<TRIPOS>ATOM
      1 PG          0.2607    0.2420   -7.8308 P.3       1 ACP         1.6558
      2 O1G        -0.0631    1.4827   -7.0542 O.2       1 ACP        -0.9020
      3 O2G         1.3985    0.4105   -8.9653 O.3       1 ACP        -0.8036
      4 O3G        -0.9781   -0.4176   -8.6309 O.3       1 ACP        -0.8036
      5 PB          2.4149   -1.0149   -5.8037 P.3       1 ACP         1.4945
      6 O1B         3.5580   -0.7153   -6.7455 O.co2     1 ACP        -0.8481
      7 O2B         2.4259   -2.2063   -4.8741 O.co2     1 ACP        -0.8481
      8 C3B         0.8774   -1.1272   -6.8256 C.3       1 ACP        -0.6636
      9 PA          2.9201    1.2533   -3.9581 P.3       1 ACP         1.6023
     10 O1A         2.0202    2.3074   -3.3502 O.co2     1 ACP        -0.8673
     11 O2A         4.1968    1.6466   -4.6690 O.co2     1 ACP        -0.8673
     12 O3A         2.0284    0.3323   -4.9701 O.3       1 ACP        -0.8150
     13 O5'         3.2885    0.1337   -2.8242 O.3       1 ACP        -0.5522
     14 C5'         2.2816   -0.2918   -1.9206 C.3       1 ACP         0.2181
     15 C4'         2.7248    0.0226   -0.4980 C.3       1 ACP         0.0915
     16 O4'         2.4697    1.4219   -0.2462 O.3       1 ACP        -0.3675
     17 C3'         1.9404   -0.7419    0.5596 C.3       1 ACP         0.0748
     18 O3'         2.7418   -0.8086    1.7389 O.3       1 ACP        -0.5646
     19 C2'         0.7477    0.1630    0.7858 C.3       1 ACP         0.0804
     20 O2'         0.1373   -0.0577    2.0407 O.3       1 ACP        -0.5882
     21 C1'         1.3733    1.5427    0.6747 C.3       1 ACP         0.3809
     22 N9          0.4520    2.5240    0.1767 N.pl3     1 ACP        -0.4412
     23 C8         -0.3054    2.4845   -1.1576 C.ar      1 ACP         0.1936
     24 N7         -1.0755    3.5806   -1.2691 N.2       1 ACP        -0.2746
     25 C5         -0.8043    4.2306   -0.0942 C.ar      1 ACP        -0.1386
     26 C6         -1.4324    5.5335    0.2646 C.ar      1 ACP         0.4778
     27 N6         -2.2885    6.1054   -0.5675 N.pl3     1 ACP        -0.8290
     28 N1         -1.0537    6.0229    1.4478 N.pl3     1 ACP        -0.6985
     29 C2         -0.1096    5.3242    2.2908 C.ar      1 ACP         0.6179
     30 N3          0.4468    4.1904    1.9960 N.ar      1 ACP        -0.5105
     31 C4          0.0631    3.6855    0.7877 C.ar      1 ACP         0.2753
     32 HOG2        1.2515    1.0500   -9.6943 H         1 ACP         0.4487
     33 HOG3       -1.4380    0.1130   -9.3156 H         1 ACP         0.4487
     34 H3B1        0.0809   -1.4110   -6.1285 H         1 ACP         0.1088
     35 H3B2        1.0286   -1.9770   -7.5010 H         1 ACP         0.1088
     36 H5'1        1.3501    0.2325   -2.1561 H         1 ACP         0.0327
     37 H5'2        2.1268   -1.3683   -2.0445 H         1 ACP         0.0327
     38 H4'         3.8046   -0.1390   -0.4011 H         1 ACP         0.1275
     39 H3'         1.6787   -1.7627    0.2719 H         1 ACP         0.0637
     40 HO3'        3.5553   -1.2733    1.4913 H         1 ACP         0.4127
     41 H2'         0.0002   -0.0084   -0.0014 H         1 ACP         0.0692
     42 HO2'       -0.1554   -0.9852    2.0577 H         1 ACP         0.4431
     43 H1'         1.7718    1.9211    1.6015 H         1 ACP         0.1199
     44 H8         -0.2991    1.7413   -1.9611 H         1 ACP         0.2941
     45 HN61       -2.5167    5.6603   -1.4447 H         1 ACP         0.4754
     46 HN62       -2.7159    6.9882   -0.3270 H         1 ACP         0.4754
     47 H2          0.1059    5.8491    3.2340 H         1 ACP         0.0886
     48 H48        -1.4532    6.9099    1.7401 H         1 ACP         0.4707
@<TRIPOS>BOND
     1    1    2 2
     2    1    3 1
     3    1    4 1
     4    1    8 1
     5    3   32 1
     6    4   33 1
     7    5    6 2
     8    5    7 1
     9    5    8 1
    10    5   12 1
    11    8   34 1
    12    8   35 1
    13    9   10 2
    14    9   11 1
    15    9   12 1
    16    9   13 1
    17   13   14 1
    18   14   15 1
    19   14   36 1
    20   14   37 1
    21   15   16 1
    22   15   17 1
    23   15   38 1
    24   16   21 1
    25   17   18 1
    26   17   19 1
    27   17   39 1
    28   18   40 1
    29   19   20 1
    30   19   21 1
    31   19   41 1
    32   20   42 1
    33   21   22 1
    34   21   43 1
    35   22   23 ar
    36   22   31 ar
    37   23   24 ar
    38   23   44 1
    39   24   25 ar
    40   25   26 ar
    41   25   31 ar
    42   26   27 1
    43   26   28 ar
    44   27   45 1
    45   27   46 1
    46   28   29 ar
    47   28   48 1
    48   29   30 ar
    49   29   47 1
    50   30   31 ar
@<TRIPOS>SUBSTRUCTURE
     1 ACP         1 GROUP 0 A     ****
@<TRIPOS>MOLECULE
[[5-(6-amino-1,8-dihydropurine-6,8-diylium-7-id-9-yl)-3,4-dihydroxy-tetrahydrofuran-2-yl]methoxy-oxido-phosphoryl]oxy-(phosphonomethyl)phosphinate
   48    50     1     0     0
SMALL
USER_CHARGES

@<TRIPOS>ATOM
      1 PG          4.8186   -4.7775   -1.6109 P.3       1 ACP         1.6558
      2 O1G         4.4575   -5.7649   -0.5422 O.2       1 ACP        -0.9020
      3 O2G         6.2486   -5.0179   -2.3233 O.3       1 ACP        -0.8036
      4 O3G         4.8862   -3.2352   -1.1350 O.3       1 ACP        -0.8036
      5 PB          3.8808   -3.5997   -4.4504 P.3       1 ACP         1.4945
      6 O1B         2.7257   -3.8529   -5.3912 O.co2     1 ACP        -0.8481
      7 O2B         5.3214   -3.7056   -4.8942 O.co2     1 ACP        -0.8481
      8 C3B         3.6658   -4.7291   -3.0016 C.3       1 ACP        -0.6636
      9 PA          3.4810   -0.6670   -4.2373 P.3       1 ACP         1.6023
     10 O1A         2.1984   -0.5911   -5.0371 O.co2     1 ACP        -0.8673
     11 O2A         4.7974   -0.2396   -4.8493 O.co2     1 ACP        -0.8673
     12 O3A         3.6466   -2.1886   -3.6674 O.3       1 ACP        -0.8150
     13 O5'         3.2885    0.1337   -2.8242 O.3       1 ACP        -0.5522
     14 C5'         2.2816   -0.2918   -1.9206 C.3       1 ACP         0.2181
     15 C4'         2.7248    0.0226   -0.4980 C.3       1 ACP         0.0915
     16 O4'         2.4697    1.4219   -0.2462 O.3       1 ACP        -0.3675
     17 C3'         1.9404   -0.7419    0.5596 C.3       1 ACP         0.0748
     18 O3'         2.7418   -0.8086    1.7389 O.3       1 ACP        -0.5646
     19 C2'         0.7477    0.1630    0.7858 C.3       1 ACP         0.0804
     20 O2'         0.1373   -0.0577    2.0407 O.3       1 ACP        -0.5882
     21 C1'         1.3733    1.5427    0.6747 C.3       1 ACP         0.3809
     22 N9          0.4520    2.5240    0.1767 N.pl3     1 ACP        -0.4412
     23 C8          0.5793    3.3338   -1.1209 C.ar      1 ACP         0.1936
     24 N7         -0.4807    4.1508   -1.2458 N.2       1 ACP        -0.2746
     25 C5         -1.1921    3.8572   -0.1126 C.ar      1 ACP        -0.1386
     26 C6         -2.4855    4.5203    0.2163 C.ar      1 ACP         0.4778
     27 N6         -2.9873    5.4319   -0.6020 N.pl3     1 ACP        -0.8290
     28 N1         -3.0414    4.1119    1.3596 N.pl3     1 ACP        -0.6985
     29 C2         -2.4169    3.1071    2.1904 C.ar      1 ACP         0.6179
     30 N3         -1.2928    2.5191    1.9210 N.ar      1 ACP        -0.5105
     31 C4         -0.7202    2.9326    0.7534 C.ar      1 ACP         0.2753
     32 HOG2        7.0616   -5.0000   -1.7748 H         1 ACP         0.4487
     33 HOG3        5.5196   -2.9828   -0.4300 H         1 ACP         0.4487
     34 H3B1        3.6115   -5.7397   -3.4219 H         1 ACP         0.1088
     35 H3B2        2.6764   -4.5012   -2.5890 H         1 ACP         0.1088
     36 H5'1        1.3501    0.2325   -2.1561 H         1 ACP         0.0327
     37 H5'2        2.1268   -1.3683   -2.0445 H         1 ACP         0.0327
     38 H4'         3.8046   -0.1390   -0.4011 H         1 ACP         0.1275
     39 H3'         1.6787   -1.7627    0.2719 H         1 ACP         0.0637
     40 HO3'        3.5553   -1.2733    1.4913 H         1 ACP         0.4127
     41 H2'         0.0002   -0.0084   -0.0014 H         1 ACP         0.0692
     42 HO2'       -0.1554   -0.9852    2.0577 H         1 ACP         0.4431
     43 H1'         1.7718    1.9211    1.6015 H         1 ACP         0.1199
     44 H8          1.3565    3.3309   -1.8916 H         1 ACP         0.2941
     45 HN61       -2.4952    5.6785   -1.4487 H         1 ACP         0.4754
     46 HN62       -3.8637    5.8828   -0.3819 H         1 ACP         0.4754
     47 H2         -2.9911    2.8734    3.1000 H         1 ACP         0.0886
     48 H48        -3.9253    4.5332    1.6302 H         1 ACP         0.4707
@<TRIPOS>BOND
     1    1    2 2
     2    1    3 1
     3    1    4 1
     4    1    8 1
     5    3   32 1
     6    4   33 1
     7    5    6 2
     8    5    7 1
     9    5    8 1
    10    5   12 1
    11    8   34 1
    12    8   35 1
    13    9   10 2
    14    9   11 1
    15    9   12 1
    16    9   13 1
    17   13   14 1
    18   14   15 1
    19   14   36 1
    20   14   37 1
    21   15   16 1
    22   15   17 1
    23   15   38 1
    24   16   21 1
    25   17   18 1
    26   17   19 1
    27   17   39 1
    28   18   40 1
    29   19   20 1
    30   19   21 1
    31   19   41 1
    32   20   42 1
    33   21   22 1
    34   21   43 1
    35   22   23 ar
    36   22   31 ar
    37   23   24 ar
    38   23   44 1
    39   24   25 ar
    40   25   26 ar
    41   25   31 ar
    42   26   27 1
    43   26   28 ar
    44   27   45 1
    45   27   46 1
    46   28   29 ar
    47   28   48 1
    48   29   30 ar
    49   29   47 1
    50   30   31 ar
@<TRIPOS>SUBSTRUCTURE
     1 ACP         1 GROUP 0 A     ****
@<TRIPOS>MOLECULE
[[5-(6-amino-1,8-dihydropurine-6,8-diylium-7-id-9-yl)-3,4-dihydroxy-tetrahydrofuran-2-yl]methoxy-oxido-phosphoryl]oxy-(phosphonomethyl)phosphinate
   48    50     1     0     0
SMALL
USER_CHARGES

@<TRIPOS>ATOM
      1 PG          4.0138   -4.5557   -1.2507 P.3       1 ACP         1.6558
      2 O1G         2.6219   -4.2159   -1.6919 O.2       1 ACP        -0.9020
      3 O2G         4.3143   -6.1309   -1.0540 O.3       1 ACP        -0.8036
      4 O3G         4.4742   -3.9032    0.1535 O.3       1 ACP        -0.8036
      5 PB          5.5769   -2.2581   -2.8656 P.3       1 ACP         1.4945
      6 O1B         6.7393   -2.2228   -3.8306 O.co2     1 ACP        -0.8481
      7 O2B         5.5604   -1.4454   -1.5917 O.co2     1 ACP        -0.8481
      8 C3B         5.3086   -4.0265   -2.3948 C.3       1 ACP        -0.6636
      9 PA          3.4810   -0.6670   -4.2373 P.3       1 ACP         1.6023
     10 O1A         2.1230   -1.0218   -4.8033 O.co2     1 ACP        -0.8673
     11 O2A         4.4926    0.0849   -5.0747 O.co2     1 ACP        -0.8673
     12 O3A         4.1836   -2.0330   -3.6824 O.3       1 ACP        -0.8150
     13 O5'         3.2885    0.1337   -2.8242 O.3       1 ACP        -0.5522
     14 C5'         2.2816   -0.2918   -1.9206 C.3       1 ACP         0.2181
     15 C4'         2.7248    0.0226   -0.4980 C.3       1 ACP         0.0915
     16 O4'         2.4697    1.4219   -0.2462 O.3       1 ACP        -0.3675
     17 C3'         1.9404   -0.7419    0.5596 C.3       1 ACP         0.0748
     18 O3'         2.7418   -0.8086    1.7389 O.3       1 ACP        -0.5646
     19 C2'         0.7477    0.1630    0.7858 C.3       1 ACP         0.0804
     20 O2'         0.1373   -0.0577    2.0407 O.3       1 ACP        -0.5882
     21 C1'         1.3733    1.5427    0.6747 C.3       1 ACP         0.3809
     22 N9          0.4520    2.5240    0.1767 N.pl3     1 ACP        -0.4412
     23 C8         -1.0660    2.5608    0.3999 C.ar      1 ACP         0.1936
     24 N7         -1.5852    3.6333   -0.2221 N.2       1 ACP        -0.2746
     25 C5         -0.4682    4.1996   -0.7771 C.ar      1 ACP        -0.1386
     26 C6         -0.5216    5.4476   -1.5899 C.ar      1 ACP         0.4778
     27 N6         -1.6813    6.0510   -1.7982 N.pl3     1 ACP        -0.8290
     28 N1          0.6621    5.8575   -2.0523 N.pl3     1 ACP        -0.6985
     29 C2          1.8795    5.1301   -1.7717 C.ar      1 ACP         0.6179
     30 N3          1.9458    4.0434   -1.0670 N.ar      1 ACP        -0.5105
     31 C4          0.7388    3.6199   -0.5917 C.ar      1 ACP         0.2753
     32 HOG2        3.7862   -6.6373   -0.4009 H         1 ACP         0.4487
     33 HOG3        3.9670   -4.1163    0.9655 H         1 ACP         0.4487
     34 H3B1        6.2674   -4.3726   -1.9925 H         1 ACP         0.1088
     35 H3B2        5.1439   -4.5647   -3.3352 H         1 ACP         0.1088
     36 H5'1        1.3501    0.2325   -2.1561 H         1 ACP         0.0327
     37 H5'2        2.1268   -1.3683   -2.0445 H         1 ACP         0.0327
     38 H4'         3.8046   -0.1390   -0.4011 H         1 ACP         0.1275
     39 H3'         1.6787   -1.7627    0.2719 H         1 ACP         0.0637
     40 HO3'        2.2231   -1.2979    2.3952 H         1 ACP         0.4127
     41 H2'         0.0002   -0.0084   -0.0014 H         1 ACP         0.0692
     42 HO2'       -0.1554   -0.9852    2.0577 H         1 ACP         0.4431
     43 H1'         1.7718    1.9211    1.6015 H         1 ACP         0.1199
     44 H8         -1.7235    1.8833    0.9537 H         1 ACP         0.2941
     45 HN61       -2.5296    5.6672   -1.4072 H         1 ACP         0.4754
     46 HN62       -1.7205    6.8969   -2.3483 H         1 ACP         0.4754
     47 H2          2.7750    5.5878   -2.2190 H         1 ACP         0.0886
     48 H48         0.6808    6.7046   -2.6128 H         1 ACP         0.4707
@<TRIPOS>BOND
     1    1    2 2
     2    1    3 1
     3    1    4 1
     4    1    8 1
     5    3   32 1
     6    4   33 1
     7    5    6 2
     8    5    7 1
     9    5    8 1
    10    5   12 1
    11    8   34 1
    12    8   35 1
    13    9   10 2
    14    9   11 1
    15    9   12 1
    16    9   13 1
    17   13   14 1
    18   14   15 1
    19   14   36 1
    20   14   37 1
    21   15   16 1
    22   15   17 1
    23   15   38 1
    24   16   21 1
    25   17   18 1
    26   17   19 1
    27   17   39 1
    28   18   40 1
    29   19   20 1
    30   19   21 1
    31   19   41 1
    32   20   42 1
    33   21   22 1
    34   21   43 1
    35   22   23 ar
    36   22   31 ar
    37   23   24 ar
    38   23   44 1
    39   24   25 ar
    40   25   26 ar
    41   25   31 ar
    42   26   27 1
    43   26   28 ar
    44   27   45 1
    45   27   46 1
    46   28   29 ar
    47   28   48 1
    48   29   30 ar
    49   29   47 1
    50   30   31 ar
@<TRIPOS>SUBSTRUCTURE
     1 ACP         1 GROUP 0 A     ****
@<TRIPOS>MOLECULE
[[5-(6-amino-1,8-dihydropurine-6,8-diylium-7-id-9-yl)-3,4-dihydroxy-tetrahydrofuran-2-yl]methoxy-oxido-phosphoryl]oxy-(phosphonomethyl)phosphinate
   48    50     1     0     0
SMALL
USER_CHARGES

@<TRIPOS>ATOM
      1 PG         -1.2179   -4.2630    0.4147 P.3       1 ACP         1.6558
      2 O1G        -1.2508   -5.7401    0.1612 O.2       1 ACP        -0.9020
      3 O2G         0.2521   -3.6285    0.6311 O.3       1 ACP        -0.8036
      4 O3G        -2.0412   -3.7641    1.7119 O.3       1 ACP        -0.8036
      5 PB         -1.2348   -3.2756   -2.6439 P.3       1 ACP         1.4945
      6 O1B        -2.0715   -2.3180   -3.4602 O.co2     1 ACP        -0.8481
      7 O2B        -1.0438   -4.7210   -3.0411 O.co2     1 ACP        -0.8481
      8 C3B        -1.9087   -3.2616   -0.9215 C.3       1 ACP        -0.6636
      9 PA          1.5529   -2.4527   -3.2419 P.3       1 ACP         1.6023
     10 O1A         1.2368   -1.5456   -4.4115 O.co2     1 ACP        -0.8673
     11 O2A         2.1257   -3.8345   -3.4711 O.co2     1 ACP        -0.8673
     12 O3A         0.2119   -2.5960   -2.3207 O.3       1 ACP        -0.8150
     13 O5'         2.5238   -1.6632   -2.1888 O.3       1 ACP        -0.5522
     14 C5'         2.2816   -0.2918   -1.9206 C.3       1 ACP         0.2181
     15 C4'         2.7248    0.0226   -0.4980 C.3       1 ACP         0.0915
     16 O4'         2.4697    1.4219   -0.2462 O.3       1 ACP        -0.3675
     17 C3'         1.9404   -0.7419    0.5596 C.3       1 ACP         0.0748
     18 O3'         2.7418   -0.8086    1.7389 O.3       1 ACP        -0.5646
     19 C2'         0.7477    0.1630    0.7858 C.3       1 ACP         0.0804
     20 O2'         0.1373   -0.0577    2.0407 O.3       1 ACP        -0.5882
     21 C1'         1.3733    1.5427    0.6747 C.3       1 ACP         0.3809
     22 N9          0.4520    2.5240    0.1767 N.pl3     1 ACP        -0.4412
     23 C8         -0.7463    2.2774   -0.7501 C.ar      1 ACP         0.1936
     24 N7         -1.3714    3.4419   -0.9948 N.2       1 ACP        -0.2746
     25 C5         -0.6104    4.3223   -0.2723 C.ar      1 ACP        -0.1386
     26 C6         -0.9062    5.7820   -0.2194 C.ar      1 ACP         0.4778
     27 N6         -1.9385    6.2713   -0.8881 N.pl3     1 ACP        -0.8290
     28 N1         -0.0613    6.4906    0.5336 N.pl3     1 ACP        -0.6985
     29 C2          1.0416    5.8662    1.2291 C.ar      1 ACP         0.6179
     30 N3          1.3146    4.5989    1.1954 N.ar      1 ACP        -0.5105
     31 C4          0.4541    3.8697    0.4273 C.ar      1 ACP         0.2753
     32 HOG2        0.8056   -3.9542    1.3724 H         1 ACP         0.4487
     33 HOG3       -1.7897   -4.1078    2.5955 H         1 ACP         0.4487
     34 H3B1       -2.9683   -3.5240   -1.0181 H         1 ACP         0.1088
     35 H3B2       -1.8671   -2.2170   -0.5926 H         1 ACP         0.1088
     36 H5'1        2.8430    0.3138   -2.6391 H         1 ACP         0.0327
     37 H5'2        1.2126   -0.0907   -2.0421 H         1 ACP         0.0327
     38 H4'         3.8046   -0.1390   -0.4011 H         1 ACP         0.1275
     39 H3'         1.6787   -1.7627    0.2719 H         1 ACP         0.0637
     40 HO3'        2.2231   -1.2979    2.3952 H         1 ACP         0.4127
     41 H2'         0.0002   -0.0084   -0.0014 H         1 ACP         0.0692
     42 HO2'       -0.1554   -0.9852    2.0577 H         1 ACP         0.4431
     43 H1'         1.7718    1.9211    1.6015 H         1 ACP         0.1199
     44 H8         -1.1244    1.3534   -1.1987 H         1 ACP         0.2941
     45 HN61       -2.5259    5.6573   -1.4336 H         1 ACP         0.4754
     46 HN62       -2.1416    7.2600   -0.8539 H         1 ACP         0.4754
     47 H2          1.6509    6.5764    1.8088 H         1 ACP         0.0886
     48 H48        -0.2190    7.4917    0.6033 H         1 ACP         0.4707
@<TRIPOS>BOND
     1    1    2 2
     2    1    3 1
     3    1    4 1
     4    1    8 1
     5    3   32 1
     6    4   33 1
     7    5    6 2
     8    5    7 1
     9    5    8 1
    10    5   12 1
    11    8   34 1
    12    8   35 1
    13    9   10 2
    14    9   11 1
    15    9   12 1
    16    9   13 1
    17   13   14 1
    18   14   15 1
    19   14   36 1
    20   14   37 1
    21   15   16 1
    22   15   17 1
    23   15   38 1
    24   16   21 1
    25   17   18 1
    26   17   19 1
    27   17   39 1
    28   18   40 1
    29   19   20 1
    30   19   21 1
    31   19   41 1
    32   20   42 1
    33   21   22 1
    34   21   43 1
    35   22   23 ar
    36   22   31 ar
    37   23   24 ar
    38   23   44 1
    39   24   25 ar
    40   25   26 ar
    41   25   31 ar
    42   26   27 1
    43   26   28 ar
    44   27   45 1
    45   27   46 1
    46   28   29 ar
    47   28   48 1
    48   29   30 ar
    49   29   47 1
    50   30   31 ar
@<TRIPOS>SUBSTRUCTURE
     1 ACP         1 GROUP 0 A     ****
@<TRIPOS>MOLECULE
[[5-(6-amino-1,8-dihydropurine-6,8-diylium-7-id-9-yl)-3,4-dihydroxy-tetrahydrofuran-2-yl]methoxy-oxido-phosphoryl]oxy-(phosphonomethyl)phosphinate
   48    50     1     0     0
SMALL
USER_CHARGES

@<TRIPOS>ATOM
      1 PG         -0.5846   -2.2467   -5.5199 P.3       1 ACP         1.6558
      2 O1G        -0.5705   -1.5600   -4.1874 O.2       1 ACP        -0.9020
      3 O2G        -1.7958   -1.8280   -6.5036 O.3       1 ACP        -0.8036
      4 O3G        -0.6780   -3.8586   -5.4677 O.3       1 ACP        -0.8036
      5 PB          2.5921   -2.4153   -5.9788 P.3       1 ACP         1.4945
      6 O1B         3.5422   -2.0117   -7.0824 O.co2     1 ACP        -0.8481
      7 O2B         2.5260   -3.8283   -5.4471 O.co2     1 ACP        -0.8481
      8 C3B         0.8872   -1.9519   -6.5261 C.3       1 ACP        -0.6636
      9 PA          3.9981   -0.9679   -3.8029 P.3       1 ACP         1.6023
     10 O1A         5.0312   -0.2798   -4.6687 O.co2     1 ACP        -0.8673
     11 O2A         4.3716   -2.1736   -2.9681 O.co2     1 ACP        -0.8673
     12 O3A         2.7194   -1.3641   -4.7386 O.3       1 ACP        -0.8150
     13 O5'         3.2885    0.1337   -2.8242 O.3       1 ACP        -0.5522
     14 C5'         2.2816   -0.2918   -1.9206 C.3       1 ACP         0.2181
     15 C4'         2.7248    0.0226   -0.4980 C.3       1 ACP         0.0915
     16 O4'         2.4697    1.4219   -0.2462 O.3       1 ACP        -0.3675
     17 C3'         1.9404   -0.7419    0.5596 C.3       1 ACP         0.0748
     18 O3'         2.7418   -0.8086    1.7389 O.3       1 ACP        -0.5646
     19 C2'         0.7477    0.1630    0.7858 C.3       1 ACP         0.0804
     20 O2'         0.1373   -0.0577    2.0407 O.3       1 ACP        -0.5882
     21 C1'         1.3733    1.5427    0.6747 C.3       1 ACP         0.3809
     22 N9          0.4520    2.5240    0.1767 N.pl3     1 ACP        -0.4412
     23 C8          0.5793    3.3338   -1.1209 C.ar      1 ACP         0.1936
     24 N7         -0.4807    4.1508   -1.2458 N.2       1 ACP        -0.2746
     25 C5         -1.1921    3.8572   -0.1126 C.ar      1 ACP        -0.1386
     26 C6         -2.4855    4.5203    0.2163 C.ar      1 ACP         0.4778
     27 N6         -2.9873    5.4319   -0.6020 N.pl3     1 ACP        -0.8290
     28 N1         -3.0414    4.1119    1.3596 N.pl3     1 ACP        -0.6985
     29 C2         -2.4169    3.1071    2.1904 C.ar      1 ACP         0.6179
     30 N3         -1.2928    2.5191    1.9210 N.ar      1 ACP        -0.5105
     31 C4         -0.7202    2.9326    0.7534 C.ar      1 ACP         0.2753
     32 HOG2       -2.7196   -1.9781   -6.2102 H         1 ACP         0.4487
     33 HOG3       -1.4545   -4.2759   -5.0377 H         1 ACP         0.4487
     34 H3B1        0.7386   -2.4587   -7.4863 H         1 ACP         0.1088
     35 H3B2        0.9219   -0.8765   -6.7346 H         1 ACP         0.1088
     36 H5'1        1.3501    0.2325   -2.1561 H         1 ACP         0.0327
     37 H5'2        2.1268   -1.3683   -2.0445 H         1 ACP         0.0327
     38 H4'         3.8046   -0.1390   -0.4011 H         1 ACP         0.1275
     39 H3'         1.6787   -1.7627    0.2719 H         1 ACP         0.0637
     40 HO3'        3.5553   -1.2733    1.4913 H         1 ACP         0.4127
     41 H2'         0.0002   -0.0084   -0.0014 H         1 ACP         0.0692
     42 HO2'       -0.1554   -0.9852    2.0577 H         1 ACP         0.4431
     43 H1'         1.7718    1.9211    1.6015 H         1 ACP         0.1199
     44 H8          1.3565    3.3309   -1.8916 H         1 ACP         0.2941
     45 HN61       -2.4952    5.6785   -1.4487 H         1 ACP         0.4754
     46 HN62       -3.8637    5.8828   -0.3819 H         1 ACP         0.4754
     47 H2         -2.9911    2.8734    3.1000 H         1 ACP         0.0886
     48 H48        -3.9253    4.5332    1.6302 H         1 ACP         0.4707
@<TRIPOS>BOND
     1    1    2 2
     2    1    3 1
     3    1    4 1
     4    1    8 1
     5    3   32 1
     6    4   33 1
     7    5    6 2
     8    5    7 1
     9    5    8 1
    10    5   12 1
    11    8   34 1
    12    8   35 1
    13    9   10 2
    14    9   11 1
    15    9   12 1
    16    9   13 1
    17   13   14 1
    18   14   15 1
    19   14   36 1
    20   14   37 1
    21   15   16 1
    22   15   17 1
    23   15   38 1
    24   16   21 1
    25   17   18 1
    26   17   19 1
    27   17   39 1
    28   18   40 1
    29   19   20 1
    30   19   21 1
    31   19   41 1
    32   20   42 1
    33   21   22 1
    34   21   43 1
    35   22   23 ar
    36   22   31 ar
    37   23   24 ar
    38   23   44 1
    39   24   25 ar
    40   25   26 ar
    41   25   31 ar
    42   26   27 1
    43   26   28 ar
    44   27   45 1
    45   27   46 1
    46   28   29 ar
    47   28   48 1
    48   29   30 ar
    49   29   47 1
    50   30   31 ar
@<TRIPOS>SUBSTRUCTURE
     1 ACP         1 GROUP 0 A     ****
@<TRIPOS>MOLECULE
[[5-(6-amino-1,8-dihydropurine-6,8-diylium-7-id-9-yl)-3,4-dihydroxy-tetrahydrofuran-2-yl]methoxy-oxido-phosphoryl]oxy-(phosphonomethyl)phosphinate
   48    50     1     0     0
SMALL
USER_CHARGES

@<TRIPOS>ATOM
      1 PG          5.1963   -3.9724   -2.2612 P.3       1 ACP         1.6558
      2 O1G         4.1855   -4.9773   -2.7257 O.2       1 ACP        -0.9020
      3 O2G         6.3574   -4.5503   -1.2978 O.3       1 ACP        -0.8036
      4 O3G         4.5994   -2.7232   -1.4288 O.3       1 ACP        -0.8036
      5 PB          5.3139   -2.1795   -4.9261 P.3       1 ACP         1.4945
      6 O1B         4.3552   -3.0955   -5.6510 O.co2     1 ACP        -0.8481
      7 O2B         6.4049   -1.4207   -5.6454 O.co2     1 ACP        -0.8481
      8 C3B         6.1216   -3.1752   -3.5930 C.3       1 ACP        -0.6636
      9 PA          3.3317   -0.0541   -4.3262 P.3       1 ACP         1.6023
     10 O1A         2.1115   -0.7775   -4.8538 O.co2     1 ACP        -0.8673
     11 O2A         3.9771    1.0549   -5.1285 O.co2     1 ACP        -0.8673
     12 O3A         4.4753   -1.1630   -3.9655 O.3       1 ACP        -0.8150
     13 O5'         3.0199    0.5139   -2.8245 O.3       1 ACP        -0.5522
     14 C5'         2.2816   -0.2918   -1.9206 C.3       1 ACP         0.2181
     15 C4'         2.7248    0.0226   -0.4980 C.3       1 ACP         0.0915
     16 O4'         2.4697    1.4219   -0.2462 O.3       1 ACP        -0.3675
     17 C3'         1.9404   -0.7419    0.5596 C.3       1 ACP         0.0748
     18 O3'         2.7418   -0.8086    1.7389 O.3       1 ACP        -0.5646
     19 C2'         0.7477    0.1630    0.7858 C.3       1 ACP         0.0804
     20 O2'         0.1373   -0.0577    2.0407 O.3       1 ACP        -0.5882
     21 C1'         1.3733    1.5427    0.6747 C.3       1 ACP         0.3809
     22 N9          0.4520    2.5240    0.1767 N.pl3     1 ACP        -0.4412
     23 C8         -0.7463    2.2774   -0.7501 C.ar      1 ACP         0.1936
     24 N7         -1.3714    3.4419   -0.9948 N.2       1 ACP        -0.2746
     25 C5         -0.6104    4.3223   -0.2723 C.ar      1 ACP        -0.1386
     26 C6         -0.9062    5.7820   -0.2194 C.ar      1 ACP         0.4778
     27 N6         -1.9385    6.2713   -0.8881 N.pl3     1 ACP        -0.8290
     28 N1         -0.0613    6.4906    0.5336 N.pl3     1 ACP        -0.6985
     29 C2          1.0416    5.8662    1.2291 C.ar      1 ACP         0.6179
     30 N3          1.3146    4.5989    1.1954 N.ar      1 ACP        -0.5105
     31 C4          0.4541    3.8697    0.4273 C.ar      1 ACP         0.2753
     32 HOG2        6.1050   -4.9641   -0.4452 H         1 ACP         0.4487
     33 HOG3        4.1154   -2.8965   -0.5935 H         1 ACP         0.4487
     34 H3B1        6.8569   -2.5067   -3.1312 H         1 ACP         0.1088
     35 H3B2        6.6844   -3.9626   -4.1072 H         1 ACP         0.1088
     36 H5'1        1.2154   -0.0780   -2.0455 H         1 ACP         0.0327
     37 H5'2        2.4646   -1.3453   -2.1548 H         1 ACP         0.0327
     38 H4'         3.8046   -0.1390   -0.4011 H         1 ACP         0.1275
     39 H3'         1.6787   -1.7627    0.2719 H         1 ACP         0.0637
     40 HO3'        2.2231   -1.2979    2.3952 H         1 ACP         0.4127
     41 H2'         0.0002   -0.0084   -0.0014 H         1 ACP         0.0692
     42 HO2'       -0.6132    0.5577    2.1063 H         1 ACP         0.4431
     43 H1'         1.7718    1.9211    1.6015 H         1 ACP         0.1199
     44 H8         -1.1244    1.3534   -1.1987 H         1 ACP         0.2941
     45 HN61       -2.5259    5.6573   -1.4336 H         1 ACP         0.4754
     46 HN62       -2.1416    7.2600   -0.8539 H         1 ACP         0.4754
     47 H2          1.6509    6.5764    1.8088 H         1 ACP         0.0886
     48 H48        -0.2190    7.4917    0.6033 H         1 ACP         0.4707
@<TRIPOS>BOND
     1    1    2 2
     2    1    3 1
     3    1    4 1
     4    1    8 1
     5    3   32 1
     6    4   33 1
     7    5    6 2
     8    5    7 1
     9    5    8 1
    10    5   12 1
    11    8   34 1
    12    8   35 1
    13    9   10 2
    14    9   11 1
    15    9   12 1
    16    9   13 1
    17   13   14 1
    18   14   15 1
    19   14   36 1
    20   14   37 1
    21   15   16 1
    22   15   17 1
    23   15   38 1
    24   16   21 1
    25   17   18 1
    26   17   19 1
    27   17   39 1
    28   18   40 1
    29   19   20 1
    30   19   21 1
    31   19   41 1
    32   20   42 1
    33   21   22 1
    34   21   43 1
    35   22   23 ar
    36   22   31 ar
    37   23   24 ar
    38   23   44 1
    39   24   25 ar
    40   25   26 ar
    41   25   31 ar
    42   26   27 1
    43   26   28 ar
    44   27   45 1
    45   27   46 1
    46   28   29 ar
    47   28   48 1
    48   29   30 ar
    49   29   47 1
    50   30   31 ar
@<TRIPOS>SUBSTRUCTURE
     1 ACP         1 GROUP 0 A     ****
@<TRIPOS>MOLECULE
[[5-(6-amino-1,8-dihydropurine-6,8-diylium-7-id-9-yl)-3,4-dihydroxy-tetrahydrofuran-2-yl]methoxy-oxido-phosphoryl]oxy-(phosphonomethyl)phosphinate
   48    50     1     0     0
SMALL
USER_CHARGES

@<TRIPOS>ATOM
      1 PG          3.0645   -3.5053   -6.1982 P.3       1 ACP         1.6558
      2 O1G         3.0744   -4.9998   -6.0823 O.2       1 ACP        -0.9020
      3 O2G         3.6358   -2.9132   -7.5887 O.3       1 ACP        -0.8036
      4 O3G         3.9144   -2.7174   -5.0727 O.3       1 ACP        -0.8036
      5 PB          1.1350   -0.9349   -6.1834 P.3       1 ACP         1.4945
      6 O1B        -0.3515   -0.7069   -6.0347 O.co2     1 ACP        -0.8481
      7 O2B         1.9145   -0.4268   -7.3740 O.co2     1 ACP        -0.8481
      8 C3B         1.4237   -2.7585   -6.0729 C.3       1 ACP        -0.6636
      9 PA          2.3308    0.9611   -4.2388 P.3       1 ACP         1.6023
     10 O1A         1.0771    1.7604   -3.9568 O.co2     1 ACP        -0.8673
     11 O2A         3.4129    1.5166   -5.1392 O.co2     1 ACP        -0.8673
     12 O3A         1.8925   -0.5072   -4.8040 O.3       1 ACP        -0.8150
     13 O5'         3.0199    0.5139   -2.8245 O.3       1 ACP        -0.5522
     14 C5'         2.2816   -0.2918   -1.9206 C.3       1 ACP         0.2181
     15 C4'         2.7248    0.0226   -0.4980 C.3       1 ACP         0.0915
     16 O4'         2.4697    1.4219   -0.2462 O.3       1 ACP        -0.3675
     17 C3'         1.9404   -0.7419    0.5596 C.3       1 ACP         0.0748
     18 O3'         2.7418   -0.8086    1.7389 O.3       1 ACP        -0.5646
     19 C2'         0.7477    0.1630    0.7858 C.3       1 ACP         0.0804
     20 O2'         0.1373   -0.0577    2.0407 O.3       1 ACP        -0.5882
     21 C1'         1.3733    1.5427    0.6747 C.3       1 ACP         0.3809
     22 N9          0.4520    2.5240    0.1767 N.pl3     1 ACP        -0.4412
     23 C8         -1.0660    2.5608    0.3999 C.ar      1 ACP         0.1936
     24 N7         -1.5852    3.6333   -0.2221 N.2       1 ACP        -0.2746
     25 C5         -0.4682    4.1996   -0.7771 C.ar      1 ACP        -0.1386
     26 C6         -0.5216    5.4476   -1.5899 C.ar      1 ACP         0.4778
     27 N6         -1.6813    6.0510   -1.7982 N.pl3     1 ACP        -0.8290
     28 N1          0.6621    5.8575   -2.0523 N.pl3     1 ACP        -0.6985
     29 C2          1.8795    5.1301   -1.7717 C.ar      1 ACP         0.6179
     30 N3          1.9458    4.0434   -1.0670 N.ar      1 ACP        -0.5105
     31 C4          0.7388    3.6199   -0.5917 C.ar      1 ACP         0.2753
     32 HOG2        4.5618   -3.1109   -7.8444 H         1 ACP         0.4487
     33 HOG3        4.8770   -2.8895   -4.9971 H         1 ACP         0.4487
     34 H3B1        0.7970   -3.2034   -6.8540 H         1 ACP         0.1088
     35 H3B2        1.0033   -3.0701   -5.1100 H         1 ACP         0.1088
     36 H5'1        1.2154   -0.0780   -2.0455 H         1 ACP         0.0327
     37 H5'2        2.4646   -1.3453   -2.1548 H         1 ACP         0.0327
     38 H4'         3.8046   -0.1390   -0.4011 H         1 ACP         0.1275
     39 H3'         1.6787   -1.7627    0.2719 H         1 ACP         0.0637
     40 HO3'        3.5553   -1.2733    1.4913 H         1 ACP         0.4127
     41 H2'         0.0002   -0.0084   -0.0014 H         1 ACP         0.0692
     42 HO2'        0.8091    0.1203    2.7213 H         1 ACP         0.4431
     43 H1'         1.7718    1.9211    1.6015 H         1 ACP         0.1199
     44 H8         -1.7235    1.8833    0.9537 H         1 ACP         0.2941
     45 HN61       -2.5296    5.6672   -1.4072 H         1 ACP         0.4754
     46 HN62       -1.7205    6.8969   -2.3483 H         1 ACP         0.4754
     47 H2          2.7750    5.5878   -2.2190 H         1 ACP         0.0886
     48 H48         0.6808    6.7046   -2.6128 H         1 ACP         0.4707
@<TRIPOS>BOND
     1    1    2 2
     2    1    3 1
     3    1    4 1
     4    1    8 1
     5    3   32 1
     6    4   33 1
     7    5    6 2
     8    5    7 1
     9    5    8 1
    10    5   12 1
    11    8   34 1
    12    8   35 1
    13    9   10 2
    14    9   11 1
    15    9   12 1
    16    9   13 1
    17   13   14 1
    18   14   15 1
    19   14   36 1
    20   14   37 1
    21   15   16 1
    22   15   17 1
    23   15   38 1
    24   16   21 1
    25   17   18 1
    26   17   19 1
    27   17   39 1
    28   18   40 1
    29   19   20 1
    30   19   21 1
    31   19   41 1
    32   20   42 1
    33   21   22 1
    34   21   43 1
    35   22   23 ar
    36   22   31 ar
    37   23   24 ar
    38   23   44 1
    39   24   25 ar
    40   25   26 ar
    41   25   31 ar
    42   26   27 1
    43   26   28 ar
    44   27   45 1
    45   27   46 1
    46   28   29 ar
    47   28   48 1
    48   29   30 ar
    49   29   47 1
    50   30   31 ar
@<TRIPOS>SUBSTRUCTURE
     1 ACP         1 GROUP 0 A     ****
@<TRIPOS>MOLECULE
[[5-(6-amino-1,8-dihydropurine-6,8-diylium-7-id-9-yl)-3,4-dihydroxy-tetrahydrofuran-2-yl]methoxy-oxido-phosphoryl]oxy-(phosphonomethyl)phosphinate
   48    50     1     0     0
SMALL
USER_CHARGES

@<TRIPOS>ATOM
      1 PG         -1.5745   -8.3962    2.0354 P.3       1 ACP         1.6558
      2 O1G        -2.7054   -7.5332    2.5083 O.2       1 ACP        -0.9020
      3 O2G        -0.8703   -7.9251    0.6598 O.3       1 ACP        -0.8036
      4 O3G        -1.9518   -9.9424    1.7583 O.3       1 ACP        -0.8036
      5 PB          0.7813   -7.0396    3.7499 P.3       1 ACP         1.4945
      6 O1B         1.3910   -6.4114    2.5182 O.co2     1 ACP        -0.8481
      7 O2B         1.6164   -7.4737    4.9322 O.co2     1 ACP        -0.8481
      8 C3B        -0.1903   -8.5109    3.1913 C.3       1 ACP        -0.6636
      9 PA         -0.5283   -4.5720    4.7510 P.3       1 ACP         1.6023
     10 O1A         0.4835   -4.3793    5.8599 O.co2     1 ACP        -0.8673
     11 O2A        -1.9777   -4.1878    4.9548 O.co2     1 ACP        -0.8673
     12 O3A        -0.4709   -6.1295    4.2627 O.3       1 ACP        -0.8150
     13 O5'         0.0100   -3.8402    3.3910 O.3       1 ACP        -0.5522
     14 C5'        -0.7840   -3.8935    2.2172 C.3       1 ACP         0.2181
     15 C4'        -0.0724   -3.1466    1.1027 C.3       1 ACP         0.0915
     16 O4'        -0.8674   -3.1929   -0.0945 O.3       1 ACP        -0.3675
     17 C3'         0.1338   -1.6715    1.4027 C.3       1 ACP         0.0748
     18 O3'         1.2893   -1.4445    2.1808 O.3       1 ACP        -0.5646
     19 C2'         0.2158   -1.0724    0.0128 C.3       1 ACP         0.0804
     20 O2'         1.5141   -1.2448   -0.5513 O.3       1 ACP        -0.5882
     21 C1'        -0.7897   -1.9176   -0.7583 C.3       1 ACP         0.3809
     22 N9         -2.1040   -1.3333   -0.7704 N.pl3     1 ACP        -0.4412
     23 C8         -3.2124   -1.5345    0.2719 C.ar      1 ACP         0.1936
     24 N7         -4.2964   -0.8234   -0.0828 N.2       1 ACP        -0.2746
     25 C5         -3.8754   -0.2386   -1.2478 C.ar      1 ACP        -0.1386
     26 C6         -4.7432    0.6719   -2.0470 C.ar      1 ACP         0.4778
     27 N6         -5.9725    0.9415   -1.6366 N.pl3     1 ACP        -0.8290
     28 N1         -4.1703    1.1517   -3.1536 N.pl3     1 ACP        -0.6985
     29 C2         -2.8174    0.7994   -3.5215 C.ar      1 ACP         0.6179
     30 N3         -2.0475    0.0097   -2.8393 N.ar      1 ACP        -0.5105
     31 C4         -2.6278   -0.4836   -1.7071 C.ar      1 ACP         0.2753
     32 HOG2       -1.4117   -7.8689   -0.1562 H         1 ACP         0.4487
     33 HOG3       -2.6357  -10.1517    1.0872 H         1 ACP         0.4487
     34 H3B1       -0.5625   -8.9828    4.1077 H         1 ACP         0.1088
     35 H3B2        0.5384   -9.2006    2.7502 H         1 ACP         0.1088
     36 H5'1       -0.9357   -4.9414    1.9397 H         1 ACP         0.0327
     37 H5'2       -1.7557   -3.4349    2.4259 H         1 ACP         0.0327
     38 H4'         0.8883   -3.6447    0.8783 H         1 ACP         0.1275
     39 H3'        -0.7368   -1.2359    1.9871 H         1 ACP         0.0637
     40 HO3'        1.1625   -1.9325    3.0084 H         1 ACP         0.4127
     41 H2'        -0.0343   -0.0280    0.0196 H         1 ACP         0.0692
     42 HO2'        2.1443   -0.7955    0.0378 H         1 ACP         0.4431
     43 H1'        -0.5175   -2.1046   -1.7826 H         1 ACP         0.1199
     44 H8         -3.2310   -2.1319    1.1889 H         1 ACP         0.2941
     45 HN61       -6.3230    0.5316   -0.7829 H         1 ACP         0.4754
     46 HN62       -6.5628    1.5584   -2.1760 H         1 ACP         0.4754
     47 H2         -2.4822    1.2710   -4.4579 H         1 ACP         0.0886
     48 H48        -4.7200    1.7780   -3.7346 H         1 ACP         0.4707
@<TRIPOS>BOND
     1    1    2 2
     2    1    3 1
     3    1    4 1
     4    1    8 1
     5    3   32 1
     6    4   33 1
     7    5    6 2
     8    5    7 1
     9    5    8 1
    10    5   12 1
    11    8   34 1
    12    8   35 1
    13    9   10 2
    14    9   11 1
    15    9   12 1
    16    9   13 1
    17   13   14 1
    18   14   15 1
    19   14   36 1
    20   14   37 1
    21   15   16 1
    22   15   17 1
    23   15   38 1
    24   16   21 1
    25   17   18 1
    26   17   19 1
    27   17   39 1
    28   18   40 1
    29   19   20 1
    30   19   21 1
    31   19   41 1
    32   20   42 1
    33   21   22 1
    34   21   43 1
    35   22   23 ar
    36   22   31 ar
    37   23   24 ar
    38   23   44 1
    39   24   25 ar
    40   25   26 ar
    41   25   31 ar
    42   26   27 1
    43   26   28 ar
    44   27   45 1
    45   27   46 1
    46   28   29 ar
    47   28   48 1
    48   29   30 ar
    49   29   47 1
    50   30   31 ar
@<TRIPOS>SUBSTRUCTURE
     1 ACP         1 GROUP 0 A     ****
@<TRIPOS>MOLECULE
[[5-(6-amino-1,8-dihydropurine-6,8-diylium-7-id-9-yl)-3,4-dihydroxy-tetrahydrofuran-2-yl]methoxy-oxido-phosphoryl]oxy-(phosphonomethyl)phosphinate
   48    50     1     0     0
SMALL
USER_CHARGES

@<TRIPOS>ATOM
      1 PG          0.5693   -2.0838   -6.7262 P.3       1 ACP         1.6558
      2 O1G         1.6884   -2.5780   -5.8597 O.2       1 ACP        -0.9020
      3 O2G        -0.6608   -3.1123   -6.9246 O.3       1 ACP        -0.8036
      4 O3G         0.9842   -1.6924   -8.2376 O.3       1 ACP        -0.8036
      5 PB          0.6609    1.0118   -5.8669 P.3       1 ACP         1.4945
      6 O1B        -0.3458    2.0163   -5.3558 O.co2     1 ACP        -0.8481
      7 O2B         1.4932    1.2608   -7.1033 O.co2     1 ACP        -0.8481
      8 C3B        -0.2375   -0.5850   -6.1194 C.3       1 ACP        -0.6636
      9 PA          2.9201    1.2533   -3.9581 P.3       1 ACP         1.6023
     10 O1A         2.4599    2.5248   -3.2784 O.co2     1 ACP        -0.8673
     11 O2A         4.0401    1.2850   -4.9752 O.co2     1 ACP        -0.8673
     12 O3A         1.6231    0.5326   -4.6407 O.3       1 ACP        -0.8150
     13 O5'         3.2885    0.1337   -2.8242 O.3       1 ACP        -0.5522
     14 C5'         2.2816   -0.2918   -1.9206 C.3       1 ACP         0.2181
     15 C4'         2.7248    0.0226   -0.4980 C.3       1 ACP         0.0915
     16 O4'         2.4697    1.4219   -0.2462 O.3       1 ACP        -0.3675
     17 C3'         1.9404   -0.7419    0.5596 C.3       1 ACP         0.0748
     18 O3'         2.7418   -0.8086    1.7389 O.3       1 ACP        -0.5646
     19 C2'         0.7477    0.1630    0.7858 C.3       1 ACP         0.0804
     20 O2'         0.1373   -0.0577    2.0407 O.3       1 ACP        -0.5882
     21 C1'         1.3733    1.5427    0.6747 C.3       1 ACP         0.3809
     22 N9          0.4520    2.5240    0.1767 N.pl3     1 ACP        -0.4412
     23 C8         -0.3054    2.4845   -1.1576 C.ar      1 ACP         0.1936
     24 N7         -1.0755    3.5806   -1.2691 N.2       1 ACP        -0.2746
     25 C5         -0.8043    4.2306   -0.0942 C.ar      1 ACP        -0.1386
     26 C6         -1.4324    5.5335    0.2646 C.ar      1 ACP         0.4778
     27 N6         -2.2885    6.1054   -0.5675 N.pl3     1 ACP        -0.8290
     28 N1         -1.0537    6.0229    1.4478 N.pl3     1 ACP        -0.6985
     29 C2         -0.1096    5.3242    2.2908 C.ar      1 ACP         0.6179
     30 N3          0.4468    4.1904    1.9960 N.ar      1 ACP        -0.5105
     31 C4          0.0631    3.6855    0.7877 C.ar      1 ACP         0.2753
     32 HOG2       -0.4871   -3.9879   -7.3310 H         1 ACP         0.4487
     33 HOG3        1.3746   -2.3810   -8.8166 H         1 ACP         0.4487
     34 H3B1       -1.0626   -0.3536   -6.8024 H         1 ACP         0.1088
     35 H3B2       -0.6852   -0.8329   -5.1502 H         1 ACP         0.1088
     36 H5'1        1.3501    0.2325   -2.1561 H         1 ACP         0.0327
     37 H5'2        2.1268   -1.3683   -2.0445 H         1 ACP         0.0327
     38 H4'         3.8046   -0.1390   -0.4011 H         1 ACP         0.1275
     39 H3'         1.6787   -1.7627    0.2719 H         1 ACP         0.0637
     40 HO3'        2.9082    0.1071    2.0091 H         1 ACP         0.4127
     41 H2'         0.0002   -0.0084   -0.0014 H         1 ACP         0.0692
     42 HO2'       -0.1554   -0.9852    2.0577 H         1 ACP         0.4431
     43 H1'         1.7718    1.9211    1.6015 H         1 ACP         0.1199
     44 H8         -0.2991    1.7413   -1.9611 H         1 ACP         0.2941
     45 HN61       -2.5167    5.6603   -1.4447 H         1 ACP         0.4754
     46 HN62       -2.7159    6.9882   -0.3270 H         1 ACP         0.4754
     47 H2          0.1059    5.8491    3.2340 H         1 ACP         0.0886
     48 H48        -1.4532    6.9099    1.7401 H         1 ACP         0.4707
@<TRIPOS>BOND
     1    1    2 2
     2    1    3 1
     3    1    4 1
     4    1    8 1
     5    3   32 1
     6    4   33 1
     7    5    6 2
     8    5    7 1
     9    5    8 1
    10    5   12 1
    11    8   34 1
    12    8   35 1
    13    9   10 2
    14    9   11 1
    15    9   12 1
    16    9   13 1
    17   13   14 1
    18   14   15 1
    19   14   36 1
    20   14   37 1
    21   15   16 1
    22   15   17 1
    23   15   38 1
    24   16   21 1
    25   17   18 1
    26   17   19 1
    27   17   39 1
    28   18   40 1
    29   19   20 1
    30   19   21 1
    31   19   41 1
    32   20   42 1
    33   21   22 1
    34   21   43 1
    35   22   23 ar
    36   22   31 ar
    37   23   24 ar
    38   23   44 1
    39   24   25 ar
    40   25   26 ar
    41   25   31 ar
    42   26   27 1
    43   26   28 ar
    44   27   45 1
    45   27   46 1
    46   28   29 ar
    47   28   48 1
    48   29   30 ar
    49   29   47 1
    50   30   31 ar
@<TRIPOS>SUBSTRUCTURE
     1 ACP         1 GROUP 0 A     ****
@<TRIPOS>MOLECULE
[[5-(6-amino-1,8-dihydropurine-6,8-diylium-7-id-9-yl)-3,4-dihydroxy-tetrahydrofuran-2-yl]methoxy-oxido-phosphoryl]oxy-(phosphonomethyl)phosphinate
   48    50     1     0     0
SMALL
USER_CHARGES

@<TRIPOS>ATOM
      1 PG          7.3528   -2.4906   -2.4612 P.3       1 ACP         1.6558
      2 O1G         8.5817   -1.9566   -3.1334 O.2       1 ACP        -0.9020
      3 O2G         6.5082   -1.4140   -1.6022 O.3       1 ACP        -0.8036
      4 O3G         7.6033   -3.6971   -1.4165 O.3       1 ACP        -0.8036
      5 PB          5.3139   -2.1795   -4.9261 P.3       1 ACP         1.4945
      6 O1B         4.3552   -3.0955   -5.6510 O.co2     1 ACP        -0.8481
      7 O2B         6.4049   -1.4207   -5.6454 O.co2     1 ACP        -0.8481
      8 C3B         6.1216   -3.1752   -3.5930 C.3       1 ACP        -0.6636
      9 PA          3.3317   -0.0541   -4.3262 P.3       1 ACP         1.6023
     10 O1A         2.1115   -0.7775   -4.8538 O.co2     1 ACP        -0.8673
     11 O2A         3.9771    1.0549   -5.1285 O.co2     1 ACP        -0.8673
     12 O3A         4.4753   -1.1630   -3.9655 O.3       1 ACP        -0.8150
     13 O5'         3.0199    0.5139   -2.8245 O.3       1 ACP        -0.5522
     14 C5'         2.2816   -0.2918   -1.9206 C.3       1 ACP         0.2181
     15 C4'         2.7248    0.0226   -0.4980 C.3       1 ACP         0.0915
     16 O4'         2.4697    1.4219   -0.2462 O.3       1 ACP        -0.3675
     17 C3'         1.9404   -0.7419    0.5596 C.3       1 ACP         0.0748
     18 O3'         2.7418   -0.8086    1.7389 O.3       1 ACP        -0.5646
     19 C2'         0.7477    0.1630    0.7858 C.3       1 ACP         0.0804
     20 O2'         0.1373   -0.0577    2.0407 O.3       1 ACP        -0.5882
     21 C1'         1.3733    1.5427    0.6747 C.3       1 ACP         0.3809
     22 N9          0.4520    2.5240    0.1767 N.pl3     1 ACP        -0.4412
     23 C8         -1.0660    2.5608    0.3999 C.ar      1 ACP         0.1936
     24 N7         -1.5852    3.6333   -0.2221 N.2       1 ACP        -0.2746
     25 C5         -0.4682    4.1996   -0.7771 C.ar      1 ACP        -0.1386
     26 C6         -0.5216    5.4476   -1.5899 C.ar      1 ACP         0.4778
     27 N6         -1.6813    6.0510   -1.7982 N.pl3     1 ACP        -0.8290
     28 N1          0.6621    5.8575   -2.0523 N.pl3     1 ACP        -0.6985
     29 C2          1.8795    5.1301   -1.7717 C.ar      1 ACP         0.6179
     30 N3          1.9458    4.0434   -1.0670 N.ar      1 ACP        -0.5105
     31 C4          0.7388    3.6199   -0.5917 C.ar      1 ACP         0.2753
     32 HOG2        6.9444   -0.9580   -0.8514 H         1 ACP         0.4487
     33 HOG3        8.1838   -3.5416   -0.6413 H         1 ACP         0.4487
     34 H3B1        6.5792   -4.0313   -4.1015 H         1 ACP         0.1088
     35 H3B2        5.3049   -3.5687   -2.9772 H         1 ACP         0.1088
     36 H5'1        1.2154   -0.0780   -2.0455 H         1 ACP         0.0327
     37 H5'2        2.4646   -1.3453   -2.1548 H         1 ACP         0.0327
     38 H4'         3.8046   -0.1390   -0.4011 H         1 ACP         0.1275
     39 H3'         1.6787   -1.7627    0.2719 H         1 ACP         0.0637
     40 HO3'        2.2231   -1.2979    2.3952 H         1 ACP         0.4127
     41 H2'         0.0002   -0.0084   -0.0014 H         1 ACP         0.0692
     42 HO2'       -0.1554   -0.9852    2.0577 H         1 ACP         0.4431
     43 H1'         1.7718    1.9211    1.6015 H         1 ACP         0.1199
     44 H8         -1.7235    1.8833    0.9537 H         1 ACP         0.2941
     45 HN61       -2.5296    5.6672   -1.4072 H         1 ACP         0.4754
     46 HN62       -1.7205    6.8969   -2.3483 H         1 ACP         0.4754
     47 H2          2.7750    5.5878   -2.2190 H         1 ACP         0.0886
     48 H48         0.6808    6.7046   -2.6128 H         1 ACP         0.4707
@<TRIPOS>BOND
     1    1    2 2
     2    1    3 1
     3    1    4 1
     4    1    8 1
     5    3   32 1
     6    4   33 1
     7    5    6 2
     8    5    7 1
     9    5    8 1
    10    5   12 1
    11    8   34 1
    12    8   35 1
    13    9   10 2
    14    9   11 1
    15    9   12 1
    16    9   13 1
    17   13   14 1
    18   14   15 1
    19   14   36 1
    20   14   37 1
    21   15   16 1
    22   15   17 1
    23   15   38 1
    24   16   21 1
    25   17   18 1
    26   17   19 1
    27   17   39 1
    28   18   40 1
    29   19   20 1
    30   19   21 1
    31   19   41 1
    32   20   42 1
    33   21   22 1
    34   21   43 1
    35   22   23 ar
    36   22   31 ar
    37   23   24 ar
    38   23   44 1
    39   24   25 ar
    40   25   26 ar
    41   25   31 ar
    42   26   27 1
    43   26   28 ar
    44   27   45 1
    45   27   46 1
    46   28   29 ar
    47   28   48 1
    48   29   30 ar
    49   29   47 1
    50   30   31 ar
@<TRIPOS>SUBSTRUCTURE
     1 ACP         1 GROUP 0 A     ****
@<TRIPOS>MOLECULE
[[5-(6-amino-1,8-dihydropurine-6,8-diylium-7-id-9-yl)-3,4-dihydroxy-tetrahydrofuran-2-yl]methoxy-oxido-phosphoryl]oxy-(phosphonomethyl)phosphinate
   48    50     1     0     0
SMALL
USER_CHARGES

@<TRIPOS>ATOM
      1 PG         -0.7953   -0.9171   -7.1203 P.3       1 ACP         1.6558
      2 O1G        -0.6982   -0.0968   -8.3713 O.2       1 ACP        -0.9020
      3 O2G         0.3699   -2.0183   -6.9203 O.3       1 ACP        -0.8036
      4 O3G        -2.1567   -1.7710   -6.9556 O.3       1 ACP        -0.8036
      5 PB          0.7207    1.1029   -5.1325 P.3       1 ACP         1.4945
      6 O1B         0.4053    1.7372   -3.7977 O.co2     1 ACP        -0.8481
      7 O2B         1.0836    1.9216   -6.3497 O.co2     1 ACP        -0.8481
      8 C3B        -0.7243    0.0436   -5.5914 C.3       1 ACP        -0.6636
      9 PA          3.3317   -0.0541   -4.3262 P.3       1 ACP         1.6023
     10 O1A         4.1267    0.9765   -5.0986 O.co2     1 ACP        -0.8673
     11 O2A         3.8308   -1.4772   -4.2013 O.co2     1 ACP        -0.8673
     12 O3A         1.8123   -0.0905   -4.9242 O.3       1 ACP        -0.8150
     13 O5'         3.0199    0.5139   -2.8245 O.3       1 ACP        -0.5522
     14 C5'         2.2816   -0.2918   -1.9206 C.3       1 ACP         0.2181
     15 C4'         2.7248    0.0226   -0.4980 C.3       1 ACP         0.0915
     16 O4'         2.4697    1.4219   -0.2462 O.3       1 ACP        -0.3675
     17 C3'         1.9404   -0.7419    0.5596 C.3       1 ACP         0.0748
     18 O3'         2.7418   -0.8086    1.7389 O.3       1 ACP        -0.5646
     19 C2'         0.7477    0.1630    0.7858 C.3       1 ACP         0.0804
     20 O2'         0.1373   -0.0577    2.0407 O.3       1 ACP        -0.5882
     21 C1'         1.3733    1.5427    0.6747 C.3       1 ACP         0.3809
     22 N9          0.4520    2.5240    0.1767 N.pl3     1 ACP        -0.4412
     23 C8         -1.0660    2.5608    0.3999 C.ar      1 ACP         0.1936
     24 N7         -1.5852    3.6333   -0.2221 N.2       1 ACP        -0.2746
     25 C5         -0.4682    4.1996   -0.7771 C.ar      1 ACP        -0.1386
     26 C6         -0.5216    5.4476   -1.5899 C.ar      1 ACP         0.4778
     27 N6         -1.6813    6.0510   -1.7982 N.pl3     1 ACP        -0.8290
     28 N1          0.6621    5.8575   -2.0523 N.pl3     1 ACP        -0.6985
     29 C2          1.8795    5.1301   -1.7717 C.ar      1 ACP         0.6179
     30 N3          1.9458    4.0434   -1.0670 N.ar      1 ACP        -0.5105
     31 C4          0.7388    3.6199   -0.5917 C.ar      1 ACP         0.2753
     32 HOG2        0.4781   -2.7231   -7.5937 H         1 ACP         0.4487
     33 HOG3       -2.3811   -2.4430   -7.6338 H         1 ACP         0.4487
     34 H3B1       -1.5938    0.7105   -5.5789 H         1 ACP         0.1088
     35 H3B2       -0.8520   -0.6631   -4.7635 H         1 ACP         0.1088
     36 H5'1        1.2154   -0.0780   -2.0455 H         1 ACP         0.0327
     37 H5'2        2.4646   -1.3453   -2.1548 H         1 ACP         0.0327
     38 H4'         3.8046   -0.1390   -0.4011 H         1 ACP         0.1275
     39 H3'         1.6787   -1.7627    0.2719 H         1 ACP         0.0637
     40 HO3'        2.2231   -1.2979    2.3952 H         1 ACP         0.4127
     41 H2'         0.0002   -0.0084   -0.0014 H         1 ACP         0.0692
     42 HO2'       -0.1554   -0.9852    2.0577 H         1 ACP         0.4431
     43 H1'         1.7718    1.9211    1.6015 H         1 ACP         0.1199
     44 H8         -1.7235    1.8833    0.9537 H         1 ACP         0.2941
     45 HN61       -2.5296    5.6672   -1.4072 H         1 ACP         0.4754
     46 HN62       -1.7205    6.8969   -2.3483 H         1 ACP         0.4754
     47 H2          2.7750    5.5878   -2.2190 H         1 ACP         0.0886
     48 H48         0.6808    6.7046   -2.6128 H         1 ACP         0.4707
@<TRIPOS>BOND
     1    1    2 2
     2    1    3 1
     3    1    4 1
     4    1    8 1
     5    3   32 1
     6    4   33 1
     7    5    6 2
     8    5    7 1
     9    5    8 1
    10    5   12 1
    11    8   34 1
    12    8   35 1
    13    9   10 2
    14    9   11 1
    15    9   12 1
    16    9   13 1
    17   13   14 1
    18   14   15 1
    19   14   36 1
    20   14   37 1
    21   15   16 1
    22   15   17 1
    23   15   38 1
    24   16   21 1
    25   17   18 1
    26   17   19 1
    27   17   39 1
    28   18   40 1
    29   19   20 1
    30   19   21 1
    31   19   41 1
    32   20   42 1
    33   21   22 1
    34   21   43 1
    35   22   23 ar
    36   22   31 ar
    37   23   24 ar
    38   23   44 1
    39   24   25 ar
    40   25   26 ar
    41   25   31 ar
    42   26   27 1
    43   26   28 ar
    44   27   45 1
    45   27   46 1
    46   28   29 ar
    47   28   48 1
    48   29   30 ar
    49   29   47 1
    50   30   31 ar
@<TRIPOS>SUBSTRUCTURE
     1 ACP         1 GROUP 0 A     ****
@<TRIPOS>MOLECULE
[[5-(6-amino-1,8-dihydropurine-6,8-diylium-7-id-9-yl)-3,4-dihydroxy-tetrahydrofuran-2-yl]methoxy-oxido-phosphoryl]oxy-(phosphonomethyl)phosphinate
   48    50     1     0     0
SMALL
USER_CHARGES

@<TRIPOS>ATOM
      1 PG          2.8536   -5.0490   -5.6538 P.3       1 ACP         1.6558
      2 O1G         3.5386   -5.1184   -6.9854 O.2       1 ACP        -0.9020
      3 O2G         3.8289   -5.1138   -4.3674 O.3       1 ACP        -0.8036
      4 O3G         1.7723   -6.2151   -5.3693 O.3       1 ACP        -0.8036
      5 PB          2.6713   -1.8501   -5.4016 P.3       1 ACP         1.4945
      6 O1B         1.5671   -0.8535   -5.1355 O.co2     1 ACP        -0.8481
      7 O2B         3.5522   -1.7707   -6.6270 O.co2     1 ACP        -0.8481
      8 C3B         1.9070   -3.5342   -5.3803 C.3       1 ACP        -0.6636
      9 PA          4.4766   -0.9097   -3.2423 P.3       1 ACP         1.6023
     10 O1A         5.4238   -0.2320   -4.2087 O.co2     1 ACP        -0.8673
     11 O2A         4.9991   -1.5638   -1.9817 O.co2     1 ACP        -0.8673
     12 O3A         3.5948   -2.0096   -4.0671 O.3       1 ACP        -0.8150
     13 O5'         3.2885    0.1337   -2.8242 O.3       1 ACP        -0.5522
     14 C5'         2.2816   -0.2918   -1.9206 C.3       1 ACP         0.2181
     15 C4'         2.7248    0.0226   -0.4980 C.3       1 ACP         0.0915
     16 O4'         2.4697    1.4219   -0.2462 O.3       1 ACP        -0.3675
     17 C3'         1.9404   -0.7419    0.5596 C.3       1 ACP         0.0748
     18 O3'         2.7418   -0.8086    1.7389 O.3       1 ACP        -0.5646
     19 C2'         0.7477    0.1630    0.7858 C.3       1 ACP         0.0804
     20 O2'         0.1373   -0.0577    2.0407 O.3       1 ACP        -0.5882
     21 C1'         1.3733    1.5427    0.6747 C.3       1 ACP         0.3809
     22 N9          0.4520    2.5240    0.1767 N.pl3     1 ACP        -0.4412
     23 C8          0.1798    2.8712   -1.2933 C.ar      1 ACP         0.1936
     24 N7         -0.7494    3.8400   -1.3610 N.2       1 ACP        -0.2746
     25 C5         -1.0173    4.0603   -0.0358 C.ar      1 ACP        -0.1386
     26 C6         -2.0105    5.0717    0.4241 C.ar      1 ACP         0.4778
     27 N6         -2.6723    5.7982   -0.4628 N.pl3     1 ACP        -0.8290
     28 N1         -2.1445    5.1522    1.7502 N.pl3     1 ACP        -0.6985
     29 C2         -1.3755    4.3143    2.6426 C.ar      1 ACP         0.6179
     30 N3         -0.5075    3.4292    2.2616 N.ar      1 ACP        -0.5105
     31 C4         -0.3667    3.3425    0.9070 C.ar      1 ACP         0.2753
     32 HOG2        4.3963   -5.9037   -4.2408 H         1 ACP         0.4487
     33 HOG3        2.0691   -7.1499   -5.3747 H         1 ACP         0.4487
     34 H3B1        1.1073   -3.5039   -6.1290 H         1 ACP         0.1088
     35 H3B2        1.4243   -3.6312   -4.4012 H         1 ACP         0.1088
     36 H5'1        1.3501    0.2325   -2.1561 H         1 ACP         0.0327
     37 H5'2        2.1268   -1.3683   -2.0445 H         1 ACP         0.0327
     38 H4'         3.8046   -0.1390   -0.4011 H         1 ACP         0.1275
     39 H3'         1.6787   -1.7627    0.2719 H         1 ACP         0.0637
     40 HO3'        3.5553   -1.2733    1.4913 H         1 ACP         0.4127
     41 H2'         0.0002   -0.0084   -0.0014 H         1 ACP         0.0692
     42 HO2'       -0.6132    0.5577    2.1063 H         1 ACP         0.4431
     43 H1'         1.7718    1.9211    1.6015 H         1 ACP         0.1199
     44 H8          0.6089    2.4651   -2.2147 H         1 ACP         0.2941
     45 HN61       -2.5055    5.6680   -1.4503 H         1 ACP         0.4754
     46 HN62       -3.3462    6.4841   -0.1542 H         1 ACP         0.4754
     47 H2         -1.5932    4.4937    3.7066 H         1 ACP         0.0886
     48 H48        -2.8098    5.8270    2.1160 H         1 ACP         0.4707
@<TRIPOS>BOND
     1    1    2 2
     2    1    3 1
     3    1    4 1
     4    1    8 1
     5    3   32 1
     6    4   33 1
     7    5    6 2
     8    5    7 1
     9    5    8 1
    10    5   12 1
    11    8   34 1
    12    8   35 1
    13    9   10 2
    14    9   11 1
    15    9   12 1
    16    9   13 1
    17   13   14 1
    18   14   15 1
    19   14   36 1
    20   14   37 1
    21   15   16 1
    22   15   17 1
    23   15   38 1
    24   16   21 1
    25   17   18 1
    26   17   19 1
    27   17   39 1
    28   18   40 1
    29   19   20 1
    30   19   21 1
    31   19   41 1
    32   20   42 1
    33   21   22 1
    34   21   43 1
    35   22   23 ar
    36   22   31 ar
    37   23   24 ar
    38   23   44 1
    39   24   25 ar
    40   25   26 ar
    41   25   31 ar
    42   26   27 1
    43   26   28 ar
    44   27   45 1
    45   27   46 1
    46   28   29 ar
    47   28   48 1
    48   29   30 ar
    49   29   47 1
    50   30   31 ar
@<TRIPOS>SUBSTRUCTURE
     1 ACP         1 GROUP 0 A     ****
@<TRIPOS>MOLECULE
[[5-(6-amino-1,8-dihydropurine-6,8-diylium-7-id-9-yl)-3,4-dihydroxy-tetrahydrofuran-2-yl]methoxy-oxido-phosphoryl]oxy-(phosphonomethyl)phosphinate
   48    50     1     0     0
SMALL
USER_CHARGES

@<TRIPOS>ATOM
      1 PG          1.5429   -3.7583   -5.8793 P.3       1 ACP         1.6558
      2 O1G         0.9276   -4.6469   -6.9180 O.2       1 ACP        -0.9020
      3 O2G         2.3398   -4.5200   -4.6982 O.3       1 ACP        -0.8036
      4 O3G         0.5105   -2.8025   -5.0853 O.3       1 ACP        -0.8036
      5 PB          3.6739   -1.3905   -5.4523 P.3       1 ACP         1.4945
      6 O1B         4.6006   -0.6030   -6.3494 O.co2     1 ACP        -0.8481
      7 O2B         4.1717   -2.1475   -4.2429 O.co2     1 ACP        -0.8481
      8 C3B         2.7679   -2.5961   -6.5230 C.3       1 ACP        -0.6636
      9 PA          2.3308    0.9611   -4.2388 P.3       1 ACP         1.6023
     10 O1A         0.8771    1.3091   -4.0021 O.co2     1 ACP        -0.8673
     11 O2A         3.2554    1.9407   -4.9284 O.co2     1 ACP        -0.8673
     12 O3A         2.3991   -0.4624   -5.0367 O.3       1 ACP        -0.8150
     13 O5'         3.0199    0.5139   -2.8245 O.3       1 ACP        -0.5522
     14 C5'         2.2816   -0.2918   -1.9206 C.3       1 ACP         0.2181
     15 C4'         2.7248    0.0226   -0.4980 C.3       1 ACP         0.0915
     16 O4'         2.4697    1.4219   -0.2462 O.3       1 ACP        -0.3675
     17 C3'         1.9404   -0.7419    0.5596 C.3       1 ACP         0.0748
     18 O3'         2.7418   -0.8086    1.7389 O.3       1 ACP        -0.5646
     19 C2'         0.7477    0.1630    0.7858 C.3       1 ACP         0.0804
     20 O2'         0.1373   -0.0577    2.0407 O.3       1 ACP        -0.5882
     21 C1'         1.3733    1.5427    0.6747 C.3       1 ACP         0.3809
     22 N9          0.4520    2.5240    0.1767 N.pl3     1 ACP        -0.4412
     23 C8         -1.0660    2.5608    0.3999 C.ar      1 ACP         0.1936
     24 N7         -1.5852    3.6333   -0.2221 N.2       1 ACP        -0.2746
     25 C5         -0.4682    4.1996   -0.7771 C.ar      1 ACP        -0.1386
     26 C6         -0.5216    5.4476   -1.5899 C.ar      1 ACP         0.4778
     27 N6         -1.6813    6.0510   -1.7982 N.pl3     1 ACP        -0.8290
     28 N1          0.6621    5.8575   -2.0523 N.pl3     1 ACP        -0.6985
     29 C2          1.8795    5.1301   -1.7717 C.ar      1 ACP         0.6179
     30 N3          1.9458    4.0434   -1.0670 N.ar      1 ACP        -0.5105
     31 C4          0.7388    3.6199   -0.5917 C.ar      1 ACP         0.2753
     32 HOG2        1.8544   -5.1562   -4.1311 H         1 ACP         0.4487
     33 HOG3       -0.2158   -3.2126   -4.5694 H         1 ACP         0.4487
     34 H3B1        3.5440   -3.1804   -7.0301 H         1 ACP         0.1088
     35 H3B2        2.2667   -1.9962   -7.2912 H         1 ACP         0.1088
     36 H5'1        1.2154   -0.0780   -2.0455 H         1 ACP         0.0327
     37 H5'2        2.4646   -1.3453   -2.1548 H         1 ACP         0.0327
     38 H4'         3.8046   -0.1390   -0.4011 H         1 ACP         0.1275
     39 H3'         1.6787   -1.7627    0.2719 H         1 ACP         0.0637
     40 HO3'        2.2231   -1.2979    2.3952 H         1 ACP         0.4127
     41 H2'         0.0002   -0.0084   -0.0014 H         1 ACP         0.0692
     42 HO2'       -0.1554   -0.9852    2.0577 H         1 ACP         0.4431
     43 H1'         1.7718    1.9211    1.6015 H         1 ACP         0.1199
     44 H8         -1.7235    1.8833    0.9537 H         1 ACP         0.2941
     45 HN61       -2.5296    5.6672   -1.4072 H         1 ACP         0.4754
     46 HN62       -1.7205    6.8969   -2.3483 H         1 ACP         0.4754
     47 H2          2.7750    5.5878   -2.2190 H         1 ACP         0.0886
     48 H48         0.6808    6.7046   -2.6128 H         1 ACP         0.4707
@<TRIPOS>BOND
     1    1    2 2
     2    1    3 1
     3    1    4 1
     4    1    8 1
     5    3   32 1
     6    4   33 1
     7    5    6 2
     8    5    7 1
     9    5    8 1
    10    5   12 1
    11    8   34 1
    12    8   35 1
    13    9   10 2
    14    9   11 1
    15    9   12 1
    16    9   13 1
    17   13   14 1
    18   14   15 1
    19   14   36 1
    20   14   37 1
    21   15   16 1
    22   15   17 1
    23   15   38 1
    24   16   21 1
    25   17   18 1
    26   17   19 1
    27   17   39 1
    28   18   40 1
    29   19   20 1
    30   19   21 1
    31   19   41 1
    32   20   42 1
    33   21   22 1
    34   21   43 1
    35   22   23 ar
    36   22   31 ar
    37   23   24 ar
    38   23   44 1
    39   24   25 ar
    40   25   26 ar
    41   25   31 ar
    42   26   27 1
    43   26   28 ar
    44   27   45 1
    45   27   46 1
    46   28   29 ar
    47   28   48 1
    48   29   30 ar
    49   29   47 1
    50   30   31 ar
@<TRIPOS>SUBSTRUCTURE
     1 ACP         1 GROUP 0 A     ****
@<TRIPOS>MOLECULE
[[5-(6-amino-1,8-dihydropurine-6,8-diylium-7-id-9-yl)-3,4-dihydroxy-tetrahydrofuran-2-yl]methoxy-oxido-phosphoryl]oxy-(phosphonomethyl)phosphinate
   48    50     1     0     0
SMALL
USER_CHARGES

@<TRIPOS>ATOM
      1 PG         -4.0748   -1.1819    4.7087 P.3       1 ACP         1.6558
      2 O1G        -5.2731   -1.9381    4.2193 O.2       1 ACP        -0.9020
      3 O2G        -4.3223    0.3838    5.0212 O.3       1 ACP        -0.8036
      4 O3G        -2.8054   -1.1733    3.7096 O.3       1 ACP        -0.8036
      5 PB         -2.7318   -3.5303    6.4439 P.3       1 ACP         1.4945
      6 O1B        -3.8774   -4.4730    6.1567 O.co2     1 ACP        -0.8481
      7 O2B        -1.9515   -3.5787    7.7371 O.co2     1 ACP        -0.8481
      8 C3B        -3.3781   -1.8078    6.2541 C.3       1 ACP        -0.6636
      9 PA         -0.5283   -4.5720    4.7510 P.3       1 ACP         1.6023
     10 O1A        -1.1738   -5.8924    4.3898 O.co2     1 ACP        -0.8673
     11 O2A         0.5701   -4.5098    5.7900 O.co2     1 ACP        -0.8673
     12 O3A        -1.7033   -3.5212    5.1784 O.3       1 ACP        -0.8150
     13 O5'         0.0100   -3.8402    3.3910 O.3       1 ACP        -0.5522
     14 C5'        -0.7840   -3.8935    2.2172 C.3       1 ACP         0.2181
     15 C4'        -0.0724   -3.1466    1.1027 C.3       1 ACP         0.0915
     16 O4'        -0.8674   -3.1929   -0.0945 O.3       1 ACP        -0.3675
     17 C3'         0.1338   -1.6715    1.4027 C.3       1 ACP         0.0748
     18 O3'         1.2893   -1.4445    2.1808 O.3       1 ACP        -0.5646
     19 C2'         0.2158   -1.0724    0.0128 C.3       1 ACP         0.0804
     20 O2'         1.5141   -1.2448   -0.5513 O.3       1 ACP        -0.5882
     21 C1'        -0.7897   -1.9176   -0.7583 C.3       1 ACP         0.3809
     22 N9         -2.1040   -1.3333   -0.7704 N.pl3     1 ACP        -0.4412
     23 C8         -3.2124   -1.5345    0.2719 C.ar      1 ACP         0.1936
     24 N7         -4.2964   -0.8234   -0.0828 N.2       1 ACP        -0.2746
     25 C5         -3.8754   -0.2386   -1.2478 C.ar      1 ACP        -0.1386
     26 C6         -4.7432    0.6719   -2.0470 C.ar      1 ACP         0.4778
     27 N6         -5.9725    0.9415   -1.6366 N.pl3     1 ACP        -0.8290
     28 N1         -4.1703    1.1517   -3.1536 N.pl3     1 ACP        -0.6985
     29 C2         -2.8174    0.7994   -3.5215 C.ar      1 ACP         0.6179
     30 N3         -2.0475    0.0097   -2.8393 N.ar      1 ACP        -0.5105
     31 C4         -2.6278   -0.4836   -1.7071 C.ar      1 ACP         0.2753
     32 HOG2       -4.6261    0.9707    4.2964 H         1 ACP         0.4487
     33 HOG3       -2.9096   -0.7916    2.8121 H         1 ACP         0.4487
     34 H3B1       -2.5478   -1.1495    6.5334 H         1 ACP         0.1088
     35 H3B2       -4.1503   -1.6917    7.0231 H         1 ACP         0.1088
     36 H5'1       -0.9357   -4.9414    1.9397 H         1 ACP         0.0327
     37 H5'2       -1.7557   -3.4349    2.4259 H         1 ACP         0.0327
     38 H4'         0.8883   -3.6447    0.8783 H         1 ACP         0.1275
     39 H3'        -0.7368   -1.2359    1.9871 H         1 ACP         0.0637
     40 HO3'        1.3407   -0.4871    2.3218 H         1 ACP         0.4127
     41 H2'        -0.0343   -0.0280    0.0196 H         1 ACP         0.0692
     42 HO2'        2.1443   -0.7955    0.0378 H         1 ACP         0.4431
     43 H1'        -0.5175   -2.1046   -1.7826 H         1 ACP         0.1199
     44 H8         -3.2310   -2.1319    1.1889 H         1 ACP         0.2941
     45 HN61       -6.3230    0.5316   -0.7829 H         1 ACP         0.4754
     46 HN62       -6.5628    1.5584   -2.1760 H         1 ACP         0.4754
     47 H2         -2.4822    1.2710   -4.4579 H         1 ACP         0.0886
     48 H48        -4.7200    1.7780   -3.7346 H         1 ACP         0.4707
@<TRIPOS>BOND
     1    1    2 2
     2    1    3 1
     3    1    4 1
     4    1    8 1
     5    3   32 1
     6    4   33 1
     7    5    6 2
     8    5    7 1
     9    5    8 1
    10    5   12 1
    11    8   34 1
    12    8   35 1
    13    9   10 2
    14    9   11 1
    15    9   12 1
    16    9   13 1
    17   13   14 1
    18   14   15 1
    19   14   36 1
    20   14   37 1
    21   15   16 1
    22   15   17 1
    23   15   38 1
    24   16   21 1
    25   17   18 1
    26   17   19 1
    27   17   39 1
    28   18   40 1
    29   19   20 1
    30   19   21 1
    31   19   41 1
    32   20   42 1
    33   21   22 1
    34   21   43 1
    35   22   23 ar
    36   22   31 ar
    37   23   24 ar
    38   23   44 1
    39   24   25 ar
    40   25   26 ar
    41   25   31 ar
    42   26   27 1
    43   26   28 ar
    44   27   45 1
    45   27   46 1
    46   28   29 ar
    47   28   48 1
    48   29   30 ar
    49   29   47 1
    50   30   31 ar
@<TRIPOS>SUBSTRUCTURE
     1 ACP         1 GROUP 0 A     ****
@<TRIPOS>MOLECULE
[[5-(6-amino-1,8-dihydropurine-6,8-diylium-7-id-9-yl)-3,4-dihydroxy-tetrahydrofuran-2-yl]methoxy-oxido-phosphoryl]oxy-(phosphonomethyl)phosphinate
   48    50     1     0     0
SMALL
USER_CHARGES

@<TRIPOS>ATOM
      1 PG          2.2142   -5.6715    5.7157 P.3       1 ACP         1.6558
      2 O1G         1.7206   -4.7568    6.7960 O.2       1 ACP        -0.9020
      3 O2G         3.7645   -6.1106    5.8327 O.3       1 ACP        -0.8036
      4 O3G         2.0958   -5.0943    4.2115 O.3       1 ACP        -0.8036
      5 PB         -0.4754   -7.3821    5.3034 P.3       1 ACP         1.4945
      6 O1B        -1.1790   -6.6486    6.4217 O.co2     1 ACP        -0.8481
      7 O2B        -0.7723   -8.8266    4.9733 O.co2     1 ACP        -0.8481
      8 C3B         1.3421   -7.2513    5.6202 C.3       1 ACP        -0.6636
      9 PA         -1.7213   -6.2745    2.8484 P.3       1 ACP         1.6023
     10 O1A        -2.8743   -5.5640    3.5241 O.co2     1 ACP        -0.8673
     11 O2A        -1.9411   -7.5856    2.1255 O.co2     1 ACP        -0.8673
     12 O3A        -0.5281   -6.4829    3.9441 O.3       1 ACP        -0.8150
     13 O5'        -0.9728   -5.2428    1.8236 O.3       1 ACP        -0.5522
     14 C5'        -0.7840   -3.8935    2.2172 C.3       1 ACP         0.2181
     15 C4'        -0.0724   -3.1466    1.1027 C.3       1 ACP         0.0915
     16 O4'        -0.8674   -3.1929   -0.0945 O.3       1 ACP        -0.3675
     17 C3'         0.1338   -1.6715    1.4027 C.3       1 ACP         0.0748
     18 O3'         1.2893   -1.4445    2.1808 O.3       1 ACP        -0.5646
     19 C2'         0.2158   -1.0724    0.0128 C.3       1 ACP         0.0804
     20 O2'         1.5141   -1.2448   -0.5513 O.3       1 ACP        -0.5882
     21 C1'        -0.7897   -1.9176   -0.7583 C.3       1 ACP         0.3809
     22 N9         -2.1040   -1.3333   -0.7704 N.pl3     1 ACP        -0.4412
     23 C8         -3.2124   -1.5345    0.2719 C.ar      1 ACP         0.1936
     24 N7         -4.2964   -0.8234   -0.0828 N.2       1 ACP        -0.2746
     25 C5         -3.8754   -0.2386   -1.2478 C.ar      1 ACP        -0.1386
     26 C6         -4.7432    0.6719   -2.0470 C.ar      1 ACP         0.4778
     27 N6         -5.9725    0.9415   -1.6366 N.pl3     1 ACP        -0.8290
     28 N1         -4.1703    1.1517   -3.1536 N.pl3     1 ACP        -0.6985
     29 C2         -2.8174    0.7994   -3.5215 C.ar      1 ACP         0.6179
     30 N3         -2.0475    0.0097   -2.8393 N.ar      1 ACP        -0.5105
     31 C4         -2.6278   -0.4836   -1.7071 C.ar      1 ACP         0.2753
     32 HOG2        4.4574   -5.4166    5.8161 H         1 ACP         0.4487
     33 HOG3        2.5688   -4.2664    3.9816 H         1 ACP         0.4487
     34 H3B1        1.8212   -7.8470    4.8350 H         1 ACP         0.1088
     35 H3B2        1.5186   -7.7718    6.5684 H         1 ACP         0.1088
     36 H5'1       -1.7614   -3.4428    2.4166 H         1 ACP         0.0327
     37 H5'2       -0.1870   -3.8724    3.1344 H         1 ACP         0.0327
     38 H4'         0.8883   -3.6447    0.8783 H         1 ACP         0.1275
     39 H3'        -0.7368   -1.2359    1.9871 H         1 ACP         0.0637
     40 HO3'        1.3407   -0.4871    2.3218 H         1 ACP         0.4127
     41 H2'        -0.0343   -0.0280    0.0196 H         1 ACP         0.0692
     42 HO2'        2.1443   -0.7955    0.0378 H         1 ACP         0.4431
     43 H1'        -0.5175   -2.1046   -1.7826 H         1 ACP         0.1199
     44 H8         -3.2310   -2.1319    1.1889 H         1 ACP         0.2941
     45 HN61       -6.3230    0.5316   -0.7829 H         1 ACP         0.4754
     46 HN62       -6.5628    1.5584   -2.1760 H         1 ACP         0.4754
     47 H2         -2.4822    1.2710   -4.4579 H         1 ACP         0.0886
     48 H48        -4.7200    1.7780   -3.7346 H         1 ACP         0.4707
@<TRIPOS>BOND
     1    1    2 2
     2    1    3 1
     3    1    4 1
     4    1    8 1
     5    3   32 1
     6    4   33 1
     7    5    6 2
     8    5    7 1
     9    5    8 1
    10    5   12 1
    11    8   34 1
    12    8   35 1
    13    9   10 2
    14    9   11 1
    15    9   12 1
    16    9   13 1
    17   13   14 1
    18   14   15 1
    19   14   36 1
    20   14   37 1
    21   15   16 1
    22   15   17 1
    23   15   38 1
    24   16   21 1
    25   17   18 1
    26   17   19 1
    27   17   39 1
    28   18   40 1
    29   19   20 1
    30   19   21 1
    31   19   41 1
    32   20   42 1
    33   21   22 1
    34   21   43 1
    35   22   23 ar
    36   22   31 ar
    37   23   24 ar
    38   23   44 1
    39   24   25 ar
    40   25   26 ar
    41   25   31 ar
    42   26   27 1
    43   26   28 ar
    44   27   45 1
    45   27   46 1
    46   28   29 ar
    47   28   48 1
    48   29   30 ar
    49   29   47 1
    50   30   31 ar
@<TRIPOS>SUBSTRUCTURE
     1 ACP         1 GROUP 0 A     ****
@<TRIPOS>MOLECULE
[[5-(6-amino-1,8-dihydropurine-6,8-diylium-7-id-9-yl)-3,4-dihydroxy-tetrahydrofuran-2-yl]methoxy-oxido-phosphoryl]oxy-(phosphonomethyl)phosphinate
   48    50     1     0     0
SMALL
USER_CHARGES

@<TRIPOS>ATOM
      1 PG          2.7486    1.1434   -6.3197 P.3       1 ACP         1.6558
      2 O1G         3.4891    1.6665   -5.1258 O.2       1 ACP        -0.9020
      3 O2G         3.0855    1.8745   -7.7204 O.3       1 ACP        -0.8036
      4 O3G         1.1379    1.2255   -6.2266 O.3       1 ACP        -0.8036
      5 PB          2.6691   -1.9587   -5.4829 P.3       1 ACP         1.4945
      6 O1B         3.0593   -3.2610   -6.1428 O.co2     1 ACP        -0.8481
      7 O2B         1.2775   -1.7096   -4.9491 O.co2     1 ACP        -0.8481
      8 C3B         3.0518   -0.6013   -6.6795 C.3       1 ACP        -0.6636
      9 PA          3.9659   -2.1095   -2.8180 P.3       1 ACP         1.6023
     10 O1A         5.0701   -1.3086   -2.1624 O.co2     1 ACP        -0.8673
     11 O2A         4.0235   -3.6214   -2.8472 O.co2     1 ACP        -0.8673
     12 O3A         3.7737   -1.5707   -4.3478 O.3       1 ACP        -0.8150
     13 O5'         2.5238   -1.6632   -2.1888 O.3       1 ACP        -0.5522
     14 C5'         2.2816   -0.2918   -1.9206 C.3       1 ACP         0.2181
     15 C4'         2.7248    0.0226   -0.4980 C.3       1 ACP         0.0915
     16 O4'         2.4697    1.4219   -0.2462 O.3       1 ACP        -0.3675
     17 C3'         1.9404   -0.7419    0.5596 C.3       1 ACP         0.0748
     18 O3'         2.7418   -0.8086    1.7389 O.3       1 ACP        -0.5646
     19 C2'         0.7477    0.1630    0.7858 C.3       1 ACP         0.0804
     20 O2'         0.1373   -0.0577    2.0407 O.3       1 ACP        -0.5882
     21 C1'         1.3733    1.5427    0.6747 C.3       1 ACP         0.3809
     22 N9          0.4520    2.5240    0.1767 N.pl3     1 ACP        -0.4412
     23 C8         -0.3054    2.4845   -1.1576 C.ar      1 ACP         0.1936
     24 N7         -1.0755    3.5806   -1.2691 N.2       1 ACP        -0.2746
     25 C5         -0.8043    4.2306   -0.0942 C.ar      1 ACP        -0.1386
     26 C6         -1.4324    5.5335    0.2646 C.ar      1 ACP         0.4778
     27 N6         -2.2885    6.1054   -0.5675 N.pl3     1 ACP        -0.8290
     28 N1         -1.0537    6.0229    1.4478 N.pl3     1 ACP        -0.6985
     29 C2         -0.1096    5.3242    2.2908 C.ar      1 ACP         0.6179
     30 N3          0.4468    4.1904    1.9960 N.ar      1 ACP        -0.5105
     31 C4          0.0631    3.6855    0.7877 C.ar      1 ACP         0.2753
     32 HOG2        2.9163    2.8368   -7.8068 H         1 ACP         0.4487
     33 HOG3        0.7124    2.1023   -6.1161 H         1 ACP         0.4487
     34 H3B1        2.5015   -0.8512   -7.5937 H         1 ACP         0.1088
     35 H3B2        4.1183   -0.6993   -6.9118 H         1 ACP         0.1088
     36 H5'1        2.8430    0.3138   -2.6391 H         1 ACP         0.0327
     37 H5'2        1.2126   -0.0907   -2.0421 H         1 ACP         0.0327
     38 H4'         3.8046   -0.1390   -0.4011 H         1 ACP         0.1275
     39 H3'         1.6787   -1.7627    0.2719 H         1 ACP         0.0637
     40 HO3'        3.5553   -1.2733    1.4913 H         1 ACP         0.4127
     41 H2'         0.0002   -0.0084   -0.0014 H         1 ACP         0.0692
     42 HO2'       -0.1554   -0.9852    2.0577 H         1 ACP         0.4431
     43 H1'         1.7718    1.9211    1.6015 H         1 ACP         0.1199
     44 H8         -0.2991    1.7413   -1.9611 H         1 ACP         0.2941
     45 HN61       -2.5167    5.6603   -1.4447 H         1 ACP         0.4754
     46 HN62       -2.7159    6.9882   -0.3270 H         1 ACP         0.4754
     47 H2          0.1059    5.8491    3.2340 H         1 ACP         0.0886
     48 H48        -1.4532    6.9099    1.7401 H         1 ACP         0.4707
@<TRIPOS>BOND
     1    1    2 2
     2    1    3 1
     3    1    4 1
     4    1    8 1
     5    3   32 1
     6    4   33 1
     7    5    6 2
     8    5    7 1
     9    5    8 1
    10    5   12 1
    11    8   34 1
    12    8   35 1
    13    9   10 2
    14    9   11 1
    15    9   12 1
    16    9   13 1
    17   13   14 1
    18   14   15 1
    19   14   36 1
    20   14   37 1
    21   15   16 1
    22   15   17 1
    23   15   38 1
    24   16   21 1
    25   17   18 1
    26   17   19 1
    27   17   39 1
    28   18   40 1
    29   19   20 1
    30   19   21 1
    31   19   41 1
    32   20   42 1
    33   21   22 1
    34   21   43 1
    35   22   23 ar
    36   22   31 ar
    37   23   24 ar
    38   23   44 1
    39   24   25 ar
    40   25   26 ar
    41   25   31 ar
    42   26   27 1
    43   26   28 ar
    44   27   45 1
    45   27   46 1
    46   28   29 ar
    47   28   48 1
    48   29   30 ar
    49   29   47 1
    50   30   31 ar
@<TRIPOS>SUBSTRUCTURE
     1 ACP         1 GROUP 0 A     ****
@<TRIPOS>MOLECULE
[[5-(6-amino-1,8-dihydropurine-6,8-diylium-7-id-9-yl)-3,4-dihydroxy-tetrahydrofuran-2-yl]methoxy-oxido-phosphoryl]oxy-(phosphonomethyl)phosphinate
   48    50     1     0     0
SMALL
USER_CHARGES

@<TRIPOS>ATOM
      1 PG          4.2323   -3.3983   -7.0044 P.3       1 ACP         1.6558
      2 O1G         4.2142   -4.8178   -7.4860 O.2       1 ACP        -0.9020
      3 O2G         2.7925   -2.6678   -6.9432 O.3       1 ACP        -0.8036
      4 O3G         5.1365   -2.3823   -7.8762 O.3       1 ACP        -0.8036
      5 PB          5.0047   -1.5398   -4.4985 P.3       1 ACP         1.4945
      6 O1B         5.9159   -0.6817   -5.3453 O.co2     1 ACP        -0.8481
      7 O2B         5.2679   -1.7937   -3.0323 O.co2     1 ACP        -0.8481
      8 C3B         4.8754   -3.1874   -5.3289 C.3       1 ACP        -0.6636
      9 PA          2.7380    0.3741   -4.4295 P.3       1 ACP         1.6023
     10 O1A         1.2513    0.2198   -4.6674 O.co2     1 ACP        -0.8673
     11 O2A         3.5254    1.4501   -5.1452 O.co2     1 ACP        -0.8673
     12 O3A         3.4589   -1.0647   -4.7080 O.3       1 ACP        -0.8150
     13 O5'         3.0199    0.5139   -2.8245 O.3       1 ACP        -0.5522
     14 C5'         2.2816   -0.2918   -1.9206 C.3       1 ACP         0.2181
     15 C4'         2.7248    0.0226   -0.4980 C.3       1 ACP         0.0915
     16 O4'         2.4697    1.4219   -0.2462 O.3       1 ACP        -0.3675
     17 C3'         1.9404   -0.7419    0.5596 C.3       1 ACP         0.0748
     18 O3'         2.7418   -0.8086    1.7389 O.3       1 ACP        -0.5646
     19 C2'         0.7477    0.1630    0.7858 C.3       1 ACP         0.0804
     20 O2'         0.1373   -0.0577    2.0407 O.3       1 ACP        -0.5882
     21 C1'         1.3733    1.5427    0.6747 C.3       1 ACP         0.3809
     22 N9          0.4520    2.5240    0.1767 N.pl3     1 ACP        -0.4412
     23 C8         -0.7463    2.2774   -0.7501 C.ar      1 ACP         0.1936
     24 N7         -1.3714    3.4419   -0.9948 N.2       1 ACP        -0.2746
     25 C5         -0.6104    4.3223   -0.2723 C.ar      1 ACP        -0.1386
     26 C6         -0.9062    5.7820   -0.2194 C.ar      1 ACP         0.4778
     27 N6         -1.9385    6.2713   -0.8881 N.pl3     1 ACP        -0.8290
     28 N1         -0.0613    6.4906    0.5336 N.pl3     1 ACP        -0.6985
     29 C2          1.0416    5.8662    1.2291 C.ar      1 ACP         0.6179
     30 N3          1.3146    4.5989    1.1954 N.ar      1 ACP        -0.5105
     31 C4          0.4541    3.8697    0.4273 C.ar      1 ACP         0.2753
     32 HOG2        2.2716   -2.5746   -7.7691 H         1 ACP         0.4487
     33 HOG3        4.9242   -2.2519   -8.8248 H         1 ACP         0.4487
     34 H3B1        4.2668   -3.8068   -4.6604 H         1 ACP         0.1088
     35 H3B2        5.8877   -3.6072   -5.3197 H         1 ACP         0.1088
     36 H5'1        1.2154   -0.0780   -2.0455 H         1 ACP         0.0327
     37 H5'2        2.4646   -1.3453   -2.1548 H         1 ACP         0.0327
     38 H4'         3.8046   -0.1390   -0.4011 H         1 ACP         0.1275
     39 H3'         1.6787   -1.7627    0.2719 H         1 ACP         0.0637
     40 HO3'        2.2231   -1.2979    2.3952 H         1 ACP         0.4127
     41 H2'         0.0002   -0.0084   -0.0014 H         1 ACP         0.0692
     42 HO2'       -0.6132    0.5577    2.1063 H         1 ACP         0.4431
     43 H1'         1.7718    1.9211    1.6015 H         1 ACP         0.1199
     44 H8         -1.1244    1.3534   -1.1987 H         1 ACP         0.2941
     45 HN61       -2.5259    5.6573   -1.4336 H         1 ACP         0.4754
     46 HN62       -2.1416    7.2600   -0.8539 H         1 ACP         0.4754
     47 H2          1.6509    6.5764    1.8088 H         1 ACP         0.0886
     48 H48        -0.2190    7.4917    0.6033 H         1 ACP         0.4707
@<TRIPOS>BOND
     1    1    2 2
     2    1    3 1
     3    1    4 1
     4    1    8 1
     5    3   32 1
     6    4   33 1
     7    5    6 2
     8    5    7 1
     9    5    8 1
    10    5   12 1
    11    8   34 1
    12    8   35 1
    13    9   10 2
    14    9   11 1
    15    9   12 1
    16    9   13 1
    17   13   14 1
    18   14   15 1
    19   14   36 1
    20   14   37 1
    21   15   16 1
    22   15   17 1
    23   15   38 1
    24   16   21 1
    25   17   18 1
    26   17   19 1
    27   17   39 1
    28   18   40 1
    29   19   20 1
    30   19   21 1
    31   19   41 1
    32   20   42 1
    33   21   22 1
    34   21   43 1
    35   22   23 ar
    36   22   31 ar
    37   23   24 ar
    38   23   44 1
    39   24   25 ar
    40   25   26 ar
    41   25   31 ar
    42   26   27 1
    43   26   28 ar
    44   27   45 1
    45   27   46 1
    46   28   29 ar
    47   28   48 1
    48   29   30 ar
    49   29   47 1
    50   30   31 ar
@<TRIPOS>SUBSTRUCTURE
     1 ACP         1 GROUP 0 A     ****
@<TRIPOS>MOLECULE
[[5-(6-amino-1,8-dihydropurine-6,8-diylium-7-id-9-yl)-3,4-dihydroxy-tetrahydrofuran-2-yl]methoxy-oxido-phosphoryl]oxy-(phosphonomethyl)phosphinate
   48    50     1     0     0
SMALL
USER_CHARGES

@<TRIPOS>ATOM
      1 PG          3.4089   -4.5358    4.1241 P.3       1 ACP         1.6558
      2 O1G         2.2105   -3.9251    4.7859 O.2       1 ACP        -0.9020
      3 O2G         4.7503   -4.5816    5.0234 O.3       1 ACP        -0.8036
      4 O3G         3.8904   -3.8146    2.7611 O.3       1 ACP        -0.8036
      5 PB          1.8865   -6.7993    2.4245 P.3       1 ACP         1.4945
      6 O1B         2.0201   -8.2960    2.2644 O.co2     1 ACP        -0.8481
      7 O2B         1.9372   -5.8538    1.2467 O.co2     1 ACP        -0.8481
      8 C3B         3.1873   -6.2577    3.6226 C.3       1 ACP        -0.6636
      9 PA         -1.0045   -6.4099    2.9689 P.3       1 ACP         1.6023
     10 O1A        -1.7675   -5.9091    4.1762 O.co2     1 ACP        -0.8673
     11 O2A        -1.3833   -7.7160    2.3052 O.co2     1 ACP        -0.8673
     12 O3A         0.5836   -6.4640    3.3461 O.3       1 ACP        -0.8150
     13 O5'        -0.9728   -5.2428    1.8236 O.3       1 ACP        -0.5522
     14 C5'        -0.7840   -3.8935    2.2172 C.3       1 ACP         0.2181
     15 C4'        -0.0724   -3.1466    1.1027 C.3       1 ACP         0.0915
     16 O4'        -0.8674   -3.1929   -0.0945 O.3       1 ACP        -0.3675
     17 C3'         0.1338   -1.6715    1.4027 C.3       1 ACP         0.0748
     18 O3'         1.2893   -1.4445    2.1808 O.3       1 ACP        -0.5646
     19 C2'         0.2158   -1.0724    0.0128 C.3       1 ACP         0.0804
     20 O2'         1.5141   -1.2448   -0.5513 O.3       1 ACP        -0.5882
     21 C1'        -0.7897   -1.9176   -0.7583 C.3       1 ACP         0.3809
     22 N9         -2.1040   -1.3333   -0.7704 N.pl3     1 ACP        -0.4412
     23 C8         -3.2124   -1.5345    0.2719 C.ar      1 ACP         0.1936
     24 N7         -4.2964   -0.8234   -0.0828 N.2       1 ACP        -0.2746
     25 C5         -3.8754   -0.2386   -1.2478 C.ar      1 ACP        -0.1386
     26 C6         -4.7432    0.6719   -2.0470 C.ar      1 ACP         0.4778
     27 N6         -5.9725    0.9415   -1.6366 N.pl3     1 ACP        -0.8290
     28 N1         -4.1703    1.1517   -3.1536 N.pl3     1 ACP        -0.6985
     29 C2         -2.8174    0.7994   -3.5215 C.ar      1 ACP         0.6179
     30 N3         -2.0475    0.0097   -2.8393 N.ar      1 ACP        -0.5105
     31 C4         -2.6278   -0.4836   -1.7071 C.ar      1 ACP         0.2753
     32 HOG2        5.1313   -3.7394    5.3516 H         1 ACP         0.4487
     33 HOG3        4.1579   -2.8714    2.7914 H         1 ACP         0.4487
     34 H3B1        4.1377   -6.6049    3.2019 H         1 ACP         0.1088
     35 H3B2        3.0120   -6.8368    4.5364 H         1 ACP         0.1088
     36 H5'1       -1.7614   -3.4428    2.4166 H         1 ACP         0.0327
     37 H5'2       -0.1870   -3.8724    3.1344 H         1 ACP         0.0327
     38 H4'         0.8883   -3.6447    0.8783 H         1 ACP         0.1275
     39 H3'        -0.7368   -1.2359    1.9871 H         1 ACP         0.0637
     40 HO3'        1.3407   -0.4871    2.3218 H         1 ACP         0.4127
     41 H2'        -0.0343   -0.0280    0.0196 H         1 ACP         0.0692
     42 HO2'        2.1443   -0.7955    0.0378 H         1 ACP         0.4431
     43 H1'        -0.5175   -2.1046   -1.7826 H         1 ACP         0.1199
     44 H8         -3.2310   -2.1319    1.1889 H         1 ACP         0.2941
     45 HN61       -6.3230    0.5316   -0.7829 H         1 ACP         0.4754
     46 HN62       -6.5628    1.5584   -2.1760 H         1 ACP         0.4754
     47 H2         -2.4822    1.2710   -4.4579 H         1 ACP         0.0886
     48 H48        -4.7200    1.7780   -3.7346 H         1 ACP         0.4707
@<TRIPOS>BOND
     1    1    2 2
     2    1    3 1
     3    1    4 1
     4    1    8 1
     5    3   32 1
     6    4   33 1
     7    5    6 2
     8    5    7 1
     9    5    8 1
    10    5   12 1
    11    8   34 1
    12    8   35 1
    13    9   10 2
    14    9   11 1
    15    9   12 1
    16    9   13 1
    17   13   14 1
    18   14   15 1
    19   14   36 1
    20   14   37 1
    21   15   16 1
    22   15   17 1
    23   15   38 1
    24   16   21 1
    25   17   18 1
    26   17   19 1
    27   17   39 1
    28   18   40 1
    29   19   20 1
    30   19   21 1
    31   19   41 1
    32   20   42 1
    33   21   22 1
    34   21   43 1
    35   22   23 ar
    36   22   31 ar
    37   23   24 ar
    38   23   44 1
    39   24   25 ar
    40   25   26 ar
    41   25   31 ar
    42   26   27 1
    43   26   28 ar
    44   27   45 1
    45   27   46 1
    46   28   29 ar
    47   28   48 1
    48   29   30 ar
    49   29   47 1
    50   30   31 ar
@<TRIPOS>SUBSTRUCTURE
     1 ACP         1 GROUP 0 A     ****
@<TRIPOS>MOLECULE
[[5-(6-amino-1,8-dihydropurine-6,8-diylium-7-id-9-yl)-3,4-dihydroxy-tetrahydrofuran-2-yl]methoxy-oxido-phosphoryl]oxy-(phosphonomethyl)phosphinate
   48    50     1     0     0
SMALL
USER_CHARGES

@<TRIPOS>ATOM
      1 PG          0.4084   -8.0123    6.7903 P.3       1 ACP         1.6558
      2 O1G        -0.9885   -7.4830    6.9155 O.2       1 ACP        -0.9020
      3 O2G         0.5265   -9.5614    6.3472 O.3       1 ACP        -0.8036
      4 O3G         1.3026   -7.9325    8.1333 O.3       1 ACP        -0.8036
      5 PB          0.9849   -7.0665    3.7731 P.3       1 ACP         1.4945
      6 O1B         0.9235   -8.4858    3.2579 O.co2     1 ACP        -0.8481
      7 O2B         1.8702   -6.0166    3.1427 O.co2     1 ACP        -0.8481
      8 C3B         1.4245   -7.1531    5.5676 C.3       1 ACP        -0.6636
      9 PA         -1.7213   -6.2745    2.8484 P.3       1 ACP         1.6023
     10 O1A        -2.8743   -5.5640    3.5241 O.co2     1 ACP        -0.8673
     11 O2A        -1.9411   -7.5856    2.1255 O.co2     1 ACP        -0.8673
     12 O3A        -0.5281   -6.4829    3.9441 O.3       1 ACP        -0.8150
     13 O5'        -0.9728   -5.2428    1.8236 O.3       1 ACP        -0.5522
     14 C5'        -0.7840   -3.8935    2.2172 C.3       1 ACP         0.2181
     15 C4'        -0.0724   -3.1466    1.1027 C.3       1 ACP         0.0915
     16 O4'        -0.8674   -3.1929   -0.0945 O.3       1 ACP        -0.3675
     17 C3'         0.1338   -1.6715    1.4027 C.3       1 ACP         0.0748
     18 O3'         1.2893   -1.4445    2.1808 O.3       1 ACP        -0.5646
     19 C2'         0.2158   -1.0724    0.0128 C.3       1 ACP         0.0804
     20 O2'         1.5141   -1.2448   -0.5513 O.3       1 ACP        -0.5882
     21 C1'        -0.7897   -1.9176   -0.7583 C.3       1 ACP         0.3809
     22 N9         -2.1040   -1.3333   -0.7704 N.pl3     1 ACP        -0.4412
     23 C8         -3.2124   -1.5345    0.2719 C.ar      1 ACP         0.1936
     24 N7         -4.2964   -0.8234   -0.0828 N.2       1 ACP        -0.2746
     25 C5         -3.8754   -0.2386   -1.2478 C.ar      1 ACP        -0.1386
     26 C6         -4.7432    0.6719   -2.0470 C.ar      1 ACP         0.4778
     27 N6         -5.9725    0.9415   -1.6366 N.pl3     1 ACP        -0.8290
     28 N1         -4.1703    1.1517   -3.1536 N.pl3     1 ACP        -0.6985
     29 C2         -2.8174    0.7994   -3.5215 C.ar      1 ACP         0.6179
     30 N3         -2.0475    0.0097   -2.8393 N.ar      1 ACP        -0.5105
     31 C4         -2.6278   -0.4836   -1.7071 C.ar      1 ACP         0.2753
     32 HOG2        0.1196  -10.2502    6.9148 H         1 ACP         0.4487
     33 HOG3        0.9977   -8.4066    8.9360 H         1 ACP         0.4487
     34 H3B1        1.5281   -6.1126    5.8956 H         1 ACP         0.1088
     35 H3B2        2.4234   -7.6022    5.6095 H         1 ACP         0.1088
     36 H5'1       -1.7614   -3.4428    2.4166 H         1 ACP         0.0327
     37 H5'2       -0.1870   -3.8724    3.1344 H         1 ACP         0.0327
     38 H4'         0.8883   -3.6447    0.8783 H         1 ACP         0.1275
     39 H3'        -0.7368   -1.2359    1.9871 H         1 ACP         0.0637
     40 HO3'        1.3407   -0.4871    2.3218 H         1 ACP         0.4127
     41 H2'        -0.0343   -0.0280    0.0196 H         1 ACP         0.0692
     42 HO2'        2.1443   -0.7955    0.0378 H         1 ACP         0.4431
     43 H1'        -0.5175   -2.1046   -1.7826 H         1 ACP         0.1199
     44 H8         -3.2310   -2.1319    1.1889 H         1 ACP         0.2941
     45 HN61       -6.3230    0.5316   -0.7829 H         1 ACP         0.4754
     46 HN62       -6.5628    1.5584   -2.1760 H         1 ACP         0.4754
     47 H2         -2.4822    1.2710   -4.4579 H         1 ACP         0.0886
     48 H48        -4.7200    1.7780   -3.7346 H         1 ACP         0.4707
@<TRIPOS>BOND
     1    1    2 2
     2    1    3 1
     3    1    4 1
     4    1    8 1
     5    3   32 1
     6    4   33 1
     7    5    6 2
     8    5    7 1
     9    5    8 1
    10    5   12 1
    11    8   34 1
    12    8   35 1
    13    9   10 2
    14    9   11 1
    15    9   12 1
    16    9   13 1
    17   13   14 1
    18   14   15 1
    19   14   36 1
    20   14   37 1
    21   15   16 1
    22   15   17 1
    23   15   38 1
    24   16   21 1
    25   17   18 1
    26   17   19 1
    27   17   39 1
    28   18   40 1
    29   19   20 1
    30   19   21 1
    31   19   41 1
    32   20   42 1
    33   21   22 1
    34   21   43 1
    35   22   23 ar
    36   22   31 ar
    37   23   24 ar
    38   23   44 1
    39   24   25 ar
    40   25   26 ar
    41   25   31 ar
    42   26   27 1
    43   26   28 ar
    44   27   45 1
    45   27   46 1
    46   28   29 ar
    47   28   48 1
    48   29   30 ar
    49   29   47 1
    50   30   31 ar
@<TRIPOS>SUBSTRUCTURE
     1 ACP         1 GROUP 0 A     ****
@<TRIPOS>MOLECULE
[[5-(6-amino-1,8-dihydropurine-6,8-diylium-7-id-9-yl)-3,4-dihydroxy-tetrahydrofuran-2-yl]methoxy-oxido-phosphoryl]oxy-(phosphonomethyl)phosphinate
   48    50     1     0     0
SMALL
USER_CHARGES

@<TRIPOS>ATOM
      1 PG          3.2309    1.1039   -6.3148 P.3       1 ACP         1.6558
      2 O1G         4.3345    2.0615   -5.9794 O.2       1 ACP        -0.9020
      3 O2G         2.2954    1.5318   -7.5605 O.3       1 ACP        -0.8036
      4 O3G         2.1741    0.8209   -5.1262 O.3       1 ACP        -0.8036
      5 PB          4.7771   -1.6298   -5.6319 P.3       1 ACP         1.4945
      6 O1B         6.0550   -0.8909   -5.3086 O.co2     1 ACP        -0.8481
      7 O2B         4.7763   -3.0225   -6.2183 O.co2     1 ACP        -0.8481
      8 C3B         3.7933   -0.5524   -6.7686 C.3       1 ACP        -0.6636
      9 PA          3.9659   -2.1095   -2.8180 P.3       1 ACP         1.6023
     10 O1A         5.0701   -1.3086   -2.1624 O.co2     1 ACP        -0.8673
     11 O2A         4.0235   -3.6214   -2.8472 O.co2     1 ACP        -0.8673
     12 O3A         3.7737   -1.5707   -4.3478 O.3       1 ACP        -0.8150
     13 O5'         2.5238   -1.6632   -2.1888 O.3       1 ACP        -0.5522
     14 C5'         2.2816   -0.2918   -1.9206 C.3       1 ACP         0.2181
     15 C4'         2.7248    0.0226   -0.4980 C.3       1 ACP         0.0915
     16 O4'         2.4697    1.4219   -0.2462 O.3       1 ACP        -0.3675
     17 C3'         1.9404   -0.7419    0.5596 C.3       1 ACP         0.0748
     18 O3'         2.7418   -0.8086    1.7389 O.3       1 ACP        -0.5646
     19 C2'         0.7477    0.1630    0.7858 C.3       1 ACP         0.0804
     20 O2'         0.1373   -0.0577    2.0407 O.3       1 ACP        -0.5882
     21 C1'         1.3733    1.5427    0.6747 C.3       1 ACP         0.3809
     22 N9          0.4520    2.5240    0.1767 N.pl3     1 ACP        -0.4412
     23 C8         -0.3054    2.4845   -1.1576 C.ar      1 ACP         0.1936
     24 N7         -1.0755    3.5806   -1.2691 N.2       1 ACP        -0.2746
     25 C5         -0.8043    4.2306   -0.0942 C.ar      1 ACP        -0.1386
     26 C6         -1.4324    5.5335    0.2646 C.ar      1 ACP         0.4778
     27 N6         -2.2885    6.1054   -0.5675 N.pl3     1 ACP        -0.8290
     28 N1         -1.0537    6.0229    1.4478 N.pl3     1 ACP        -0.6985
     29 C2         -0.1096    5.3242    2.2908 C.ar      1 ACP         0.6179
     30 N3          0.4468    4.1904    1.9960 N.ar      1 ACP        -0.5105
     31 C4          0.0631    3.6855    0.7877 C.ar      1 ACP         0.2753
     32 HOG2        1.7978    2.3757   -7.5131 H         1 ACP         0.4487
     33 HOG3        1.6607    1.5713   -4.7582 H         1 ACP         0.4487
     34 H3B1        2.9085   -1.1400   -7.0385 H         1 ACP         0.1088
     35 H3B2        4.3964   -0.4474   -7.6777 H         1 ACP         0.1088
     36 H5'1        2.8430    0.3138   -2.6391 H         1 ACP         0.0327
     37 H5'2        1.2126   -0.0907   -2.0421 H         1 ACP         0.0327
     38 H4'         3.8046   -0.1390   -0.4011 H         1 ACP         0.1275
     39 H3'         1.6787   -1.7627    0.2719 H         1 ACP         0.0637
     40 HO3'        2.2231   -1.2979    2.3952 H         1 ACP         0.4127
     41 H2'         0.0002   -0.0084   -0.0014 H         1 ACP         0.0692
     42 HO2'       -0.1554   -0.9852    2.0577 H         1 ACP         0.4431
     43 H1'         1.7718    1.9211    1.6015 H         1 ACP         0.1199
     44 H8         -0.2991    1.7413   -1.9611 H         1 ACP         0.2941
     45 HN61       -2.5167    5.6603   -1.4447 H         1 ACP         0.4754
     46 HN62       -2.7159    6.9882   -0.3270 H         1 ACP         0.4754
     47 H2          0.1059    5.8491    3.2340 H         1 ACP         0.0886
     48 H48        -1.4532    6.9099    1.7401 H         1 ACP         0.4707
@<TRIPOS>BOND
     1    1    2 2
     2    1    3 1
     3    1    4 1
     4    1    8 1
     5    3   32 1
     6    4   33 1
     7    5    6 2
     8    5    7 1
     9    5    8 1
    10    5   12 1
    11    8   34 1
    12    8   35 1
    13    9   10 2
    14    9   11 1
    15    9   12 1
    16    9   13 1
    17   13   14 1
    18   14   15 1
    19   14   36 1
    20   14   37 1
    21   15   16 1
    22   15   17 1
    23   15   38 1
    24   16   21 1
    25   17   18 1
    26   17   19 1
    27   17   39 1
    28   18   40 1
    29   19   20 1
    30   19   21 1
    31   19   41 1
    32   20   42 1
    33   21   22 1
    34   21   43 1
    35   22   23 ar
    36   22   31 ar
    37   23   24 ar
    38   23   44 1
    39   24   25 ar
    40   25   26 ar
    41   25   31 ar
    42   26   27 1
    43   26   28 ar
    44   27   45 1
    45   27   46 1
    46   28   29 ar
    47   28   48 1
    48   29   30 ar
    49   29   47 1
    50   30   31 ar
@<TRIPOS>SUBSTRUCTURE
     1 ACP         1 GROUP 0 A     ****
@<TRIPOS>MOLECULE
[[5-(6-amino-1,8-dihydropurine-6,8-diylium-7-id-9-yl)-3,4-dihydroxy-tetrahydrofuran-2-yl]methoxy-oxido-phosphoryl]oxy-(phosphonomethyl)phosphinate
   48    50     1     0     0
SMALL
USER_CHARGES

@<TRIPOS>ATOM
      1 PG          0.0518   -3.2697   -4.2584 P.3       1 ACP         1.6558
      2 O1G         0.7441   -2.8445   -2.9985 O.2       1 ACP        -0.9020
      3 O2G        -1.4631   -2.7358   -4.4319 O.3       1 ACP        -0.8036
      4 O3G        -0.0816   -4.8656   -4.4709 O.3       1 ACP        -0.8036
      5 PB          1.1350   -0.9349   -6.1834 P.3       1 ACP         1.4945
      6 O1B        -0.2233   -0.2750   -6.2390 O.co2     1 ACP        -0.8481
      7 O2B         2.1070   -0.8802   -7.3391 O.co2     1 ACP        -0.8481
      8 C3B         0.8619   -2.7185   -5.7768 C.3       1 ACP        -0.6636
      9 PA          2.3308    0.9611   -4.2388 P.3       1 ACP         1.6023
     10 O1A         1.0771    1.7604   -3.9568 O.co2     1 ACP        -0.8673
     11 O2A         3.4129    1.5166   -5.1392 O.co2     1 ACP        -0.8673
     12 O3A         1.8925   -0.5072   -4.8040 O.3       1 ACP        -0.8150
     13 O5'         3.0199    0.5139   -2.8245 O.3       1 ACP        -0.5522
     14 C5'         2.2816   -0.2918   -1.9206 C.3       1 ACP         0.2181
     15 C4'         2.7248    0.0226   -0.4980 C.3       1 ACP         0.0915
     16 O4'         2.4697    1.4219   -0.2462 O.3       1 ACP        -0.3675
     17 C3'         1.9404   -0.7419    0.5596 C.3       1 ACP         0.0748
     18 O3'         2.7418   -0.8086    1.7389 O.3       1 ACP        -0.5646
     19 C2'         0.7477    0.1630    0.7858 C.3       1 ACP         0.0804
     20 O2'         0.1373   -0.0577    2.0407 O.3       1 ACP        -0.5882
     21 C1'         1.3733    1.5427    0.6747 C.3       1 ACP         0.3809
     22 N9          0.4520    2.5240    0.1767 N.pl3     1 ACP        -0.4412
     23 C8         -1.0660    2.5608    0.3999 C.ar      1 ACP         0.1936
     24 N7         -1.5852    3.6333   -0.2221 N.2       1 ACP        -0.2746
     25 C5         -0.4682    4.1996   -0.7771 C.ar      1 ACP        -0.1386
     26 C6         -0.5216    5.4476   -1.5899 C.ar      1 ACP         0.4778
     27 N6         -1.6813    6.0510   -1.7982 N.pl3     1 ACP        -0.8290
     28 N1          0.6621    5.8575   -2.0523 N.pl3     1 ACP        -0.6985
     29 C2          1.8795    5.1301   -1.7717 C.ar      1 ACP         0.6179
     30 N3          1.9458    4.0434   -1.0670 N.ar      1 ACP        -0.5105
     31 C4          0.7388    3.6199   -0.5917 C.ar      1 ACP         0.2753
     32 HOG2       -2.1342   -2.9843   -3.7611 H         1 ACP         0.4487
     33 HOG3       -0.5705   -5.3944   -3.8051 H         1 ACP         0.4487
     34 H3B1        1.8538   -3.1831   -5.8102 H         1 ACP         0.1088
     35 H3B2        0.2874   -3.1315   -6.6137 H         1 ACP         0.1088
     36 H5'1        1.2154   -0.0780   -2.0455 H         1 ACP         0.0327
     37 H5'2        2.4646   -1.3453   -2.1548 H         1 ACP         0.0327
     38 H4'         3.8046   -0.1390   -0.4011 H         1 ACP         0.1275
     39 H3'         1.6787   -1.7627    0.2719 H         1 ACP         0.0637
     40 HO3'        2.2231   -1.2979    2.3952 H         1 ACP         0.4127
     41 H2'         0.0002   -0.0084   -0.0014 H         1 ACP         0.0692
     42 HO2'       -0.1554   -0.9852    2.0577 H         1 ACP         0.4431
     43 H1'         1.7718    1.9211    1.6015 H         1 ACP         0.1199
     44 H8         -1.7235    1.8833    0.9537 H         1 ACP         0.2941
     45 HN61       -2.5296    5.6672   -1.4072 H         1 ACP         0.4754
     46 HN62       -1.7205    6.8969   -2.3483 H         1 ACP         0.4754
     47 H2          2.7750    5.5878   -2.2190 H         1 ACP         0.0886
     48 H48         0.6808    6.7046   -2.6128 H         1 ACP         0.4707
@<TRIPOS>BOND
     1    1    2 2
     2    1    3 1
     3    1    4 1
     4    1    8 1
     5    3   32 1
     6    4   33 1
     7    5    6 2
     8    5    7 1
     9    5    8 1
    10    5   12 1
    11    8   34 1
    12    8   35 1
    13    9   10 2
    14    9   11 1
    15    9   12 1
    16    9   13 1
    17   13   14 1
    18   14   15 1
    19   14   36 1
    20   14   37 1
    21   15   16 1
    22   15   17 1
    23   15   38 1
    24   16   21 1
    25   17   18 1
    26   17   19 1
    27   17   39 1
    28   18   40 1
    29   19   20 1
    30   19   21 1
    31   19   41 1
    32   20   42 1
    33   21   22 1
    34   21   43 1
    35   22   23 ar
    36   22   31 ar
    37   23   24 ar
    38   23   44 1
    39   24   25 ar
    40   25   26 ar
    41   25   31 ar
    42   26   27 1
    43   26   28 ar
    44   27   45 1
    45   27   46 1
    46   28   29 ar
    47   28   48 1
    48   29   30 ar
    49   29   47 1
    50   30   31 ar
@<TRIPOS>SUBSTRUCTURE
     1 ACP         1 GROUP 0 A     ****
@<TRIPOS>MOLECULE
[[5-(6-amino-1,8-dihydropurine-6,8-diylium-7-id-9-yl)-3,4-dihydroxy-tetrahydrofuran-2-yl]methoxy-oxido-phosphoryl]oxy-(phosphonomethyl)phosphinate
   48    50     1     0     0
SMALL
USER_CHARGES

@<TRIPOS>ATOM
      1 PG          1.6575   -3.0296   -6.1527 P.3       1 ACP         1.6558
      2 O1G         1.7104   -2.4036   -7.5139 O.2       1 ACP        -0.9020
      3 O2G         0.7590   -4.3675   -6.0386 O.3       1 ACP        -0.8036
      4 O3G         1.0808   -2.0837   -4.9770 O.3       1 ACP        -0.8036
      5 PB          4.6697   -2.3830   -5.2369 P.3       1 ACP         1.4945
      6 O1B         5.0015   -1.7616   -6.5738 O.co2     1 ACP        -0.8481
      7 O2B         5.7027   -3.1069   -4.4047 O.co2     1 ACP        -0.8481
      8 C3B         3.2633   -3.5528   -5.5098 C.3       1 ACP        -0.6636
      9 PA          4.4356   -0.0486   -3.4198 P.3       1 ACP         1.6023
     10 O1A         5.0324    0.9810   -4.3549 O.co2     1 ACP        -0.8673
     11 O2A         5.2456   -0.6069   -2.2700 O.co2     1 ACP        -0.8673
     12 O3A         3.8781   -1.2974   -4.3128 O.3       1 ACP        -0.8150
     13 O5'         3.0199    0.5139   -2.8245 O.3       1 ACP        -0.5522
     14 C5'         2.2816   -0.2918   -1.9206 C.3       1 ACP         0.2181
     15 C4'         2.7248    0.0226   -0.4980 C.3       1 ACP         0.0915
     16 O4'         2.4697    1.4219   -0.2462 O.3       1 ACP        -0.3675
     17 C3'         1.9404   -0.7419    0.5596 C.3       1 ACP         0.0748
     18 O3'         2.7418   -0.8086    1.7389 O.3       1 ACP        -0.5646
     19 C2'         0.7477    0.1630    0.7858 C.3       1 ACP         0.0804
     20 O2'         0.1373   -0.0577    2.0407 O.3       1 ACP        -0.5882
     21 C1'         1.3733    1.5427    0.6747 C.3       1 ACP         0.3809
     22 N9          0.4520    2.5240    0.1767 N.pl3     1 ACP        -0.4412
     23 C8         -0.3054    2.4845   -1.1576 C.ar      1 ACP         0.1936
     24 N7         -1.0755    3.5806   -1.2691 N.2       1 ACP        -0.2746
     25 C5         -0.8043    4.2306   -0.0942 C.ar      1 ACP        -0.1386
     26 C6         -1.4324    5.5335    0.2646 C.ar      1 ACP         0.4778
     27 N6         -2.2885    6.1054   -0.5675 N.pl3     1 ACP        -0.8290
     28 N1         -1.0537    6.0229    1.4478 N.pl3     1 ACP        -0.6985
     29 C2         -0.1096    5.3242    2.2908 C.ar      1 ACP         0.6179
     30 N3          0.4468    4.1904    1.9960 N.ar      1 ACP        -0.5105
     31 C4          0.0631    3.6855    0.7877 C.ar      1 ACP         0.2753
     32 HOG2       -0.1964   -4.3180   -6.2549 H         1 ACP         0.4487
     33 HOG3        0.1679   -1.7335   -5.0537 H         1 ACP         0.4487
     34 H3B1        3.0906   -4.0362   -4.5417 H         1 ACP         0.1088
     35 H3B2        3.6436   -4.3245   -6.1888 H         1 ACP         0.1088
     36 H5'1        1.2154   -0.0780   -2.0455 H         1 ACP         0.0327
     37 H5'2        2.4646   -1.3453   -2.1548 H         1 ACP         0.0327
     38 H4'         3.8046   -0.1390   -0.4011 H         1 ACP         0.1275
     39 H3'         1.6787   -1.7627    0.2719 H         1 ACP         0.0637
     40 HO3'        2.2231   -1.2979    2.3952 H         1 ACP         0.4127
     41 H2'         0.0002   -0.0084   -0.0014 H         1 ACP         0.0692
     42 HO2'       -0.6132    0.5577    2.1063 H         1 ACP         0.4431
     43 H1'         1.7718    1.9211    1.6015 H         1 ACP         0.1199
     44 H8         -0.2991    1.7413   -1.9611 H         1 ACP         0.2941
     45 HN61       -2.5167    5.6603   -1.4447 H         1 ACP         0.4754
     46 HN62       -2.7159    6.9882   -0.3270 H         1 ACP         0.4754
     47 H2          0.1059    5.8491    3.2340 H         1 ACP         0.0886
     48 H48        -1.4532    6.9099    1.7401 H         1 ACP         0.4707
@<TRIPOS>BOND
     1    1    2 2
     2    1    3 1
     3    1    4 1
     4    1    8 1
     5    3   32 1
     6    4   33 1
     7    5    6 2
     8    5    7 1
     9    5    8 1
    10    5   12 1
    11    8   34 1
    12    8   35 1
    13    9   10 2
    14    9   11 1
    15    9   12 1
    16    9   13 1
    17   13   14 1
    18   14   15 1
    19   14   36 1
    20   14   37 1
    21   15   16 1
    22   15   17 1
    23   15   38 1
    24   16   21 1
    25   17   18 1
    26   17   19 1
    27   17   39 1
    28   18   40 1
    29   19   20 1
    30   19   21 1
    31   19   41 1
    32   20   42 1
    33   21   22 1
    34   21   43 1
    35   22   23 ar
    36   22   31 ar
    37   23   24 ar
    38   23   44 1
    39   24   25 ar
    40   25   26 ar
    41   25   31 ar
    42   26   27 1
    43   26   28 ar
    44   27   45 1
    45   27   46 1
    46   28   29 ar
    47   28   48 1
    48   29   30 ar
    49   29   47 1
    50   30   31 ar
@<TRIPOS>SUBSTRUCTURE
     1 ACP         1 GROUP 0 A     ****
@<TRIPOS>MOLECULE
[[5-(6-amino-1,8-dihydropurine-6,8-diylium-7-id-9-yl)-3,4-dihydroxy-tetrahydrofuran-2-yl]methoxy-oxido-phosphoryl]oxy-(phosphonomethyl)phosphinate
   48    50     1     0     0
SMALL
USER_CHARGES

@<TRIPOS>ATOM
      1 PG         -5.1485   -2.9158    3.9883 P.3       1 ACP         1.6558
      2 O1G        -3.7967   -2.4068    3.5873 O.2       1 ACP        -0.9020
      3 O2G        -6.3976   -1.9930    3.5431 O.3       1 ACP        -0.8036
      4 O3G        -5.3709   -3.1152    5.5759 O.3       1 ACP        -0.8036
      5 PB         -4.5722   -6.0589    3.6435 P.3       1 ACP         1.4945
      6 O1B        -5.2347   -7.1991    2.9055 O.co2     1 ACP        -0.8481
      7 O2B        -4.3081   -6.1050    5.1306 O.co2     1 ACP        -0.8481
      8 C3B        -5.5671   -4.5364    3.3072 C.3       1 ACP        -0.6636
      9 PA         -1.7213   -6.2745    2.8484 P.3       1 ACP         1.6023
     10 O1A        -1.8046   -7.6445    2.2109 O.co2     1 ACP        -0.8673
     11 O2A        -1.1153   -6.1001    4.2240 O.co2     1 ACP        -0.8673
     12 O3A        -3.2154   -5.6149    2.8552 O.3       1 ACP        -0.8150
     13 O5'        -0.9728   -5.2428    1.8236 O.3       1 ACP        -0.5522
     14 C5'        -0.7840   -3.8935    2.2172 C.3       1 ACP         0.2181
     15 C4'        -0.0724   -3.1466    1.1027 C.3       1 ACP         0.0915
     16 O4'        -0.8674   -3.1929   -0.0945 O.3       1 ACP        -0.3675
     17 C3'         0.1338   -1.6715    1.4027 C.3       1 ACP         0.0748
     18 O3'         1.2893   -1.4445    2.1808 O.3       1 ACP        -0.5646
     19 C2'         0.2158   -1.0724    0.0128 C.3       1 ACP         0.0804
     20 O2'         1.5141   -1.2448   -0.5513 O.3       1 ACP        -0.5882
     21 C1'        -0.7897   -1.9176   -0.7583 C.3       1 ACP         0.3809
     22 N9         -2.1040   -1.3333   -0.7704 N.pl3     1 ACP        -0.4412
     23 C8         -3.2124   -1.5345    0.2719 C.ar      1 ACP         0.1936
     24 N7         -4.2964   -0.8234   -0.0828 N.2       1 ACP        -0.2746
     25 C5         -3.8754   -0.2386   -1.2478 C.ar      1 ACP        -0.1386
     26 C6         -4.7432    0.6719   -2.0470 C.ar      1 ACP         0.4778
     27 N6         -5.9725    0.9415   -1.6366 N.pl3     1 ACP        -0.8290
     28 N1         -4.1703    1.1517   -3.1536 N.pl3     1 ACP        -0.6985
     29 C2         -2.8174    0.7994   -3.5215 C.ar      1 ACP         0.6179
     30 N3         -2.0475    0.0097   -2.8393 N.ar      1 ACP        -0.5105
     31 C4         -2.6278   -0.4836   -1.7071 C.ar      1 ACP         0.2753
     32 HOG2       -6.4456   -1.0690    3.8688 H         1 ACP         0.4487
     33 HOG3       -5.2834   -2.3390    6.1691 H         1 ACP         0.4487
     34 H3B1       -6.5879   -4.7757    3.6259 H         1 ACP         0.1088
     35 H3B2       -5.5899   -4.4288    2.2167 H         1 ACP         0.1088
     36 H5'1       -1.7614   -3.4428    2.4166 H         1 ACP         0.0327
     37 H5'2       -0.1870   -3.8724    3.1344 H         1 ACP         0.0327
     38 H4'         0.8883   -3.6447    0.8783 H         1 ACP         0.1275
     39 H3'        -0.7368   -1.2359    1.9871 H         1 ACP         0.0637
     40 HO3'        1.3407   -0.4871    2.3218 H         1 ACP         0.4127
     41 H2'        -0.0343   -0.0280    0.0196 H         1 ACP         0.0692
     42 HO2'        2.1443   -0.7955    0.0378 H         1 ACP         0.4431
     43 H1'        -0.5175   -2.1046   -1.7826 H         1 ACP         0.1199
     44 H8         -3.2310   -2.1319    1.1889 H         1 ACP         0.2941
     45 HN61       -6.3230    0.5316   -0.7829 H         1 ACP         0.4754
     46 HN62       -6.5628    1.5584   -2.1760 H         1 ACP         0.4754
     47 H2         -2.4822    1.2710   -4.4579 H         1 ACP         0.0886
     48 H48        -4.7200    1.7780   -3.7346 H         1 ACP         0.4707
@<TRIPOS>BOND
     1    1    2 2
     2    1    3 1
     3    1    4 1
     4    1    8 1
     5    3   32 1
     6    4   33 1
     7    5    6 2
     8    5    7 1
     9    5    8 1
    10    5   12 1
    11    8   34 1
    12    8   35 1
    13    9   10 2
    14    9   11 1
    15    9   12 1
    16    9   13 1
    17   13   14 1
    18   14   15 1
    19   14   36 1
    20   14   37 1
    21   15   16 1
    22   15   17 1
    23   15   38 1
    24   16   21 1
    25   17   18 1
    26   17   19 1
    27   17   39 1
    28   18   40 1
    29   19   20 1
    30   19   21 1
    31   19   41 1
    32   20   42 1
    33   21   22 1
    34   21   43 1
    35   22   23 ar
    36   22   31 ar
    37   23   24 ar
    38   23   44 1
    39   24   25 ar
    40   25   26 ar
    41   25   31 ar
    42   26   27 1
    43   26   28 ar
    44   27   45 1
    45   27   46 1
    46   28   29 ar
    47   28   48 1
    48   29   30 ar
    49   29   47 1
    50   30   31 ar
@<TRIPOS>SUBSTRUCTURE
     1 ACP         1 GROUP 0 A     ****
@<TRIPOS>MOLECULE
[[5-(6-amino-1,8-dihydropurine-6,8-diylium-7-id-9-yl)-3,4-dihydroxy-tetrahydrofuran-2-yl]methoxy-oxido-phosphoryl]oxy-(phosphonomethyl)phosphinate
   48    50     1     0     0
SMALL
USER_CHARGES

@<TRIPOS>ATOM
      1 PG         -6.0573   -7.3353    3.2787 P.3       1 ACP         1.6558
      2 O1G        -7.4485   -7.0109    3.7331 O.2       1 ACP        -0.9020
      3 O2G        -5.8911   -8.7425    2.5026 O.3       1 ACP        -0.8036
      4 O3G        -4.9468   -7.4141    4.4493 O.3       1 ACP        -0.8036
      5 PB         -3.6534   -6.3047    1.4108 P.3       1 ACP         1.4945
      6 O1B        -3.4324   -5.1208    0.4980 O.co2     1 ACP        -0.8481
      7 O2B        -3.5020   -7.7307    0.9343 O.co2     1 ACP        -0.8481
      8 C3B        -5.3525   -6.1387    2.1225 C.3       1 ACP        -0.6636
      9 PA         -1.2319   -6.3265    3.1261 P.3       1 ACP         1.6023
     10 O1A        -0.8660   -7.7443    2.7434 O.co2     1 ACP        -0.8673
     11 O2A        -0.9557   -5.8090    4.5210 O.co2     1 ACP        -0.8673
     12 O3A        -2.8134   -6.0919    2.7923 O.3       1 ACP        -0.8150
     13 O5'        -0.5696   -5.2856    2.0523 O.3       1 ACP        -0.5522
     14 C5'        -0.7840   -3.8935    2.2172 C.3       1 ACP         0.2181
     15 C4'        -0.0724   -3.1466    1.1027 C.3       1 ACP         0.0915
     16 O4'        -0.8674   -3.1929   -0.0945 O.3       1 ACP        -0.3675
     17 C3'         0.1338   -1.6715    1.4027 C.3       1 ACP         0.0748
     18 O3'         1.2893   -1.4445    2.1808 O.3       1 ACP        -0.5646
     19 C2'         0.2158   -1.0724    0.0128 C.3       1 ACP         0.0804
     20 O2'         1.5141   -1.2448   -0.5513 O.3       1 ACP        -0.5882
     21 C1'        -0.7897   -1.9176   -0.7583 C.3       1 ACP         0.3809
     22 N9         -2.1040   -1.3333   -0.7704 N.pl3     1 ACP        -0.4412
     23 C8         -3.2124   -1.5345    0.2719 C.ar      1 ACP         0.1936
     24 N7         -4.2964   -0.8234   -0.0828 N.2       1 ACP        -0.2746
     25 C5         -3.8754   -0.2386   -1.2478 C.ar      1 ACP        -0.1386
     26 C6         -4.7432    0.6719   -2.0470 C.ar      1 ACP         0.4778
     27 N6         -5.9725    0.9415   -1.6366 N.pl3     1 ACP        -0.8290
     28 N1         -4.1703    1.1517   -3.1536 N.pl3     1 ACP        -0.6985
     29 C2         -2.8174    0.7994   -3.5215 C.ar      1 ACP         0.6179
     30 N3         -2.0475    0.0097   -2.8393 N.ar      1 ACP        -0.5105
     31 C4         -2.6278   -0.4836   -1.7071 C.ar      1 ACP         0.2753
     32 HOG2       -6.1305   -9.5725    2.9673 H         1 ACP         0.4487
     33 HOG3       -5.0620   -8.0690    5.1703 H         1 ACP         0.4487
     34 H3B1       -6.0271   -6.0737    1.2613 H         1 ACP         0.1088
     35 H3B2       -5.3744   -5.1623    2.6198 H         1 ACP         0.1088
     36 H5'1       -1.8599   -3.6947    2.1849 H         1 ACP         0.0327
     37 H5'2       -0.3934   -3.5882    3.1930 H         1 ACP         0.0327
     38 H4'         0.8883   -3.6447    0.8783 H         1 ACP         0.1275
     39 H3'        -0.7368   -1.2359    1.9871 H         1 ACP         0.0637
     40 HO3'        1.3407   -0.4871    2.3218 H         1 ACP         0.4127
     41 H2'        -0.0343   -0.0280    0.0196 H         1 ACP         0.0692
     42 HO2'        1.4978   -0.8409   -1.4361 H         1 ACP         0.4431
     43 H1'        -0.5175   -2.1046   -1.7826 H         1 ACP         0.1199
     44 H8         -3.2310   -2.1319    1.1889 H         1 ACP         0.2941
     45 HN61       -6.3230    0.5316   -0.7829 H         1 ACP         0.4754
     46 HN62       -6.5628    1.5584   -2.1760 H         1 ACP         0.4754
     47 H2         -2.4822    1.2710   -4.4579 H         1 ACP         0.0886
     48 H48        -4.7200    1.7780   -3.7346 H         1 ACP         0.4707
@<TRIPOS>BOND
     1    1    2 2
     2    1    3 1
     3    1    4 1
     4    1    8 1
     5    3   32 1
     6    4   33 1
     7    5    6 2
     8    5    7 1
     9    5    8 1
    10    5   12 1
    11    8   34 1
    12    8   35 1
    13    9   10 2
    14    9   11 1
    15    9   12 1
    16    9   13 1
    17   13   14 1
    18   14   15 1
    19   14   36 1
    20   14   37 1
    21   15   16 1
    22   15   17 1
    23   15   38 1
    24   16   21 1
    25   17   18 1
    26   17   19 1
    27   17   39 1
    28   18   40 1
    29   19   20 1
    30   19   21 1
    31   19   41 1
    32   20   42 1
    33   21   22 1
    34   21   43 1
    35   22   23 ar
    36   22   31 ar
    37   23   24 ar
    38   23   44 1
    39   24   25 ar
    40   25   26 ar
    41   25   31 ar
    42   26   27 1
    43   26   28 ar
    44   27   45 1
    45   27   46 1
    46   28   29 ar
    47   28   48 1
    48   29   30 ar
    49   29   47 1
    50   30   31 ar
@<TRIPOS>SUBSTRUCTURE
     1 ACP         1 GROUP 0 A     ****
@<TRIPOS>MOLECULE
[[5-(6-amino-1,8-dihydropurine-6,8-diylium-7-id-9-yl)-3,4-dihydroxy-tetrahydrofuran-2-yl]methoxy-oxido-phosphoryl]oxy-(phosphonomethyl)phosphinate
   48    50     1     0     0
SMALL
USER_CHARGES

@<TRIPOS>ATOM
      1 PG          2.7183   -7.0602    5.1411 P.3       1 ACP         1.6558
      2 O1G         2.8071   -6.5253    3.7435 O.2       1 ACP        -0.9020
      3 O2G         3.7963   -6.4595    6.1838 O.3       1 ACP        -0.8036
      4 O3G         2.9020   -8.6587    5.2841 O.3       1 ACP        -0.8036
      5 PB         -0.4754   -7.3821    5.3034 P.3       1 ACP         1.4945
      6 O1B        -1.5556   -6.9226    6.2550 O.co2     1 ACP        -0.8481
      7 O2B        -0.2793   -8.8375    4.9470 O.co2     1 ACP        -0.8481
      8 C3B         1.1360   -6.7529    5.9580 C.3       1 ACP        -0.6636
      9 PA         -1.7213   -6.2745    2.8484 P.3       1 ACP         1.6023
     10 O1A        -2.8743   -5.5640    3.5241 O.co2     1 ACP        -0.8673
     11 O2A        -1.9411   -7.5856    2.1255 O.co2     1 ACP        -0.8673
     12 O3A        -0.5281   -6.4829    3.9441 O.3       1 ACP        -0.8150
     13 O5'        -0.9728   -5.2428    1.8236 O.3       1 ACP        -0.5522
     14 C5'        -0.7840   -3.8935    2.2172 C.3       1 ACP         0.2181
     15 C4'        -0.0724   -3.1466    1.1027 C.3       1 ACP         0.0915
     16 O4'        -0.8674   -3.1929   -0.0945 O.3       1 ACP        -0.3675
     17 C3'         0.1338   -1.6715    1.4027 C.3       1 ACP         0.0748
     18 O3'         1.2893   -1.4445    2.1808 O.3       1 ACP        -0.5646
     19 C2'         0.2158   -1.0724    0.0128 C.3       1 ACP         0.0804
     20 O2'         1.5141   -1.2448   -0.5513 O.3       1 ACP        -0.5882
     21 C1'        -0.7897   -1.9176   -0.7583 C.3       1 ACP         0.3809
     22 N9         -2.1040   -1.3333   -0.7704 N.pl3     1 ACP        -0.4412
     23 C8         -3.2124   -1.5345    0.2719 C.ar      1 ACP         0.1936
     24 N7         -4.2964   -0.8234   -0.0828 N.2       1 ACP        -0.2746
     25 C5         -3.8754   -0.2386   -1.2478 C.ar      1 ACP        -0.1386
     26 C6         -4.7432    0.6719   -2.0470 C.ar      1 ACP         0.4778
     27 N6         -5.9725    0.9415   -1.6366 N.pl3     1 ACP        -0.8290
     28 N1         -4.1703    1.1517   -3.1536 N.pl3     1 ACP        -0.6985
     29 C2         -2.8174    0.7994   -3.5215 C.ar      1 ACP         0.6179
     30 N3         -2.0475    0.0097   -2.8393 N.ar      1 ACP        -0.5105
     31 C4         -2.6278   -0.4836   -1.7071 C.ar      1 ACP         0.2753
     32 HOG2        4.7524   -6.5808    6.0014 H         1 ACP         0.4487
     33 HOG3        3.7403   -9.0695    4.9831 H         1 ACP         0.4487
     34 H3B1        1.2102   -7.1412    6.9800 H         1 ACP         0.1088
     35 H3B2        1.0227   -5.6656    6.0369 H         1 ACP         0.1088
     36 H5'1       -1.7614   -3.4428    2.4166 H         1 ACP         0.0327
     37 H5'2       -0.1870   -3.8724    3.1344 H         1 ACP         0.0327
     38 H4'         0.8883   -3.6447    0.8783 H         1 ACP         0.1275
     39 H3'        -0.7368   -1.2359    1.9871 H         1 ACP         0.0637
     40 HO3'        1.3407   -0.4871    2.3218 H         1 ACP         0.4127
     41 H2'        -0.0343   -0.0280    0.0196 H         1 ACP         0.0692
     42 HO2'        2.1443   -0.7955    0.0378 H         1 ACP         0.4431
     43 H1'        -0.5175   -2.1046   -1.7826 H         1 ACP         0.1199
     44 H8         -3.2310   -2.1319    1.1889 H         1 ACP         0.2941
     45 HN61       -6.3230    0.5316   -0.7829 H         1 ACP         0.4754
     46 HN62       -6.5628    1.5584   -2.1760 H         1 ACP         0.4754
     47 H2         -2.4822    1.2710   -4.4579 H         1 ACP         0.0886
     48 H48        -4.7200    1.7780   -3.7346 H         1 ACP         0.4707
@<TRIPOS>BOND
     1    1    2 2
     2    1    3 1
     3    1    4 1
     4    1    8 1
     5    3   32 1
     6    4   33 1
     7    5    6 2
     8    5    7 1
     9    5    8 1
    10    5   12 1
    11    8   34 1
    12    8   35 1
    13    9   10 2
    14    9   11 1
    15    9   12 1
    16    9   13 1
    17   13   14 1
    18   14   15 1
    19   14   36 1
    20   14   37 1
    21   15   16 1
    22   15   17 1
    23   15   38 1
    24   16   21 1
    25   17   18 1
    26   17   19 1
    27   17   39 1
    28   18   40 1
    29   19   20 1
    30   19   21 1
    31   19   41 1
    32   20   42 1
    33   21   22 1
    34   21   43 1
    35   22   23 ar
    36   22   31 ar
    37   23   24 ar
    38   23   44 1
    39   24   25 ar
    40   25   26 ar
    41   25   31 ar
    42   26   27 1
    43   26   28 ar
    44   27   45 1
    45   27   46 1
    46   28   29 ar
    47   28   48 1
    48   29   30 ar
    49   29   47 1
    50   30   31 ar
@<TRIPOS>SUBSTRUCTURE
     1 ACP         1 GROUP 0 A     ****
@<TRIPOS>MOLECULE
[[5-(6-amino-1,8-dihydropurine-6,8-diylium-7-id-9-yl)-3,4-dihydroxy-tetrahydrofuran-2-yl]methoxy-oxido-phosphoryl]oxy-(phosphonomethyl)phosphinate
   48    50     1     0     0
SMALL
USER_CHARGES

@<TRIPOS>ATOM
      1 PG          7.8247    0.3744   -2.8688 P.3       1 ACP         1.6558
      2 O1G         6.7213    1.3277   -2.5206 O.2       1 ACP        -0.9020
      3 O2G         8.5512   -0.3350   -1.6121 O.3       1 ACP        -0.8036
      4 O3G         9.0508    1.0100   -3.7068 O.3       1 ACP        -0.8036
      5 PB          6.0267   -2.2448   -3.3557 P.3       1 ACP         1.4945
      6 O1B         6.5288   -2.8929   -2.0863 O.co2     1 ACP        -0.8481
      7 O2B         5.6355   -3.0501   -4.5731 O.co2     1 ACP        -0.8481
      8 C3B         7.3078   -1.0230   -3.8914 C.3       1 ACP        -0.6636
      9 PA          3.9531   -0.2088   -3.9567 P.3       1 ACP         1.6023
     10 O1A         3.0864   -1.0761   -4.8440 O.co2     1 ACP        -0.8673
     11 O2A         4.8667    0.8375   -4.5571 O.co2     1 ACP        -0.8673
     12 O3A         4.8446   -1.1814   -2.9939 O.3       1 ACP        -0.8150
     13 O5'         3.0199    0.5139   -2.8245 O.3       1 ACP        -0.5522
     14 C5'         2.2816   -0.2918   -1.9206 C.3       1 ACP         0.2181
     15 C4'         2.7248    0.0226   -0.4980 C.3       1 ACP         0.0915
     16 O4'         2.4697    1.4219   -0.2462 O.3       1 ACP        -0.3675
     17 C3'         1.9404   -0.7419    0.5596 C.3       1 ACP         0.0748
     18 O3'         2.7418   -0.8086    1.7389 O.3       1 ACP        -0.5646
     19 C2'         0.7477    0.1630    0.7858 C.3       1 ACP         0.0804
     20 O2'         0.1373   -0.0577    2.0407 O.3       1 ACP        -0.5882
     21 C1'         1.3733    1.5427    0.6747 C.3       1 ACP         0.3809
     22 N9          0.4520    2.5240    0.1767 N.pl3     1 ACP        -0.4412
     23 C8          0.1798    2.8712   -1.2933 C.ar      1 ACP         0.1936
     24 N7         -0.7494    3.8400   -1.3610 N.2       1 ACP        -0.2746
     25 C5         -1.0173    4.0603   -0.0358 C.ar      1 ACP        -0.1386
     26 C6         -2.0105    5.0717    0.4241 C.ar      1 ACP         0.4778
     27 N6         -2.6723    5.7982   -0.4628 N.pl3     1 ACP        -0.8290
     28 N1         -2.1445    5.1522    1.7502 N.pl3     1 ACP        -0.6985
     29 C2         -1.3755    4.3143    2.6426 C.ar      1 ACP         0.6179
     30 N3         -0.5075    3.4292    2.2616 N.ar      1 ACP        -0.5105
     31 C4         -0.3667    3.3425    0.9070 C.ar      1 ACP         0.2753
     32 HOG2        8.9979    0.2260   -0.9430 H         1 ACP         0.4487
     33 HOG3        9.5630    1.7482   -3.3134 H         1 ACP         0.4487
     34 H3B1        6.9495   -0.6202   -4.8455 H         1 ACP         0.1088
     35 H3B2        8.2075   -1.6094   -4.1099 H         1 ACP         0.1088
     36 H5'1        1.2154   -0.0780   -2.0455 H         1 ACP         0.0327
     37 H5'2        2.4646   -1.3453   -2.1548 H         1 ACP         0.0327
     38 H4'         3.8046   -0.1390   -0.4011 H         1 ACP         0.1275
     39 H3'         1.6787   -1.7627    0.2719 H         1 ACP         0.0637
     40 HO3'        2.2231   -1.2979    2.3952 H         1 ACP         0.4127
     41 H2'         0.0002   -0.0084   -0.0014 H         1 ACP         0.0692
     42 HO2'       -0.1554   -0.9852    2.0577 H         1 ACP         0.4431
     43 H1'         1.7718    1.9211    1.6015 H         1 ACP         0.1199
     44 H8          0.6089    2.4651   -2.2147 H         1 ACP         0.2941
     45 HN61       -2.5055    5.6680   -1.4503 H         1 ACP         0.4754
     46 HN62       -3.3462    6.4841   -0.1542 H         1 ACP         0.4754
     47 H2         -1.5932    4.4937    3.7066 H         1 ACP         0.0886
     48 H48        -2.8098    5.8270    2.1160 H         1 ACP         0.4707
@<TRIPOS>BOND
     1    1    2 2
     2    1    3 1
     3    1    4 1
     4    1    8 1
     5    3   32 1
     6    4   33 1
     7    5    6 2
     8    5    7 1
     9    5    8 1
    10    5   12 1
    11    8   34 1
    12    8   35 1
    13    9   10 2
    14    9   11 1
    15    9   12 1
    16    9   13 1
    17   13   14 1
    18   14   15 1
    19   14   36 1
    20   14   37 1
    21   15   16 1
    22   15   17 1
    23   15   38 1
    24   16   21 1
    25   17   18 1
    26   17   19 1
    27   17   39 1
    28   18   40 1
    29   19   20 1
    30   19   21 1
    31   19   41 1
    32   20   42 1
    33   21   22 1
    34   21   43 1
    35   22   23 ar
    36   22   31 ar
    37   23   24 ar
    38   23   44 1
    39   24   25 ar
    40   25   26 ar
    41   25   31 ar
    42   26   27 1
    43   26   28 ar
    44   27   45 1
    45   27   46 1
    46   28   29 ar
    47   28   48 1
    48   29   30 ar
    49   29   47 1
    50   30   31 ar
@<TRIPOS>SUBSTRUCTURE
     1 ACP         1 GROUP 0 A     ****
@<TRIPOS>MOLECULE
[[5-(6-amino-1,8-dihydropurine-6,8-diylium-7-id-9-yl)-3,4-dihydroxy-tetrahydrofuran-2-yl]methoxy-oxido-phosphoryl]oxy-(phosphonomethyl)phosphinate
   48    50     1     0     0
SMALL
USER_CHARGES

@<TRIPOS>ATOM
      1 PG         -1.5284   -4.1727   -5.0387 P.3       1 ACP         1.6558
      2 O1G        -2.9888   -4.2289   -5.3723 O.2       1 ACP        -0.9020
      3 O2G        -0.6908   -3.0086   -5.7828 O.3       1 ACP        -0.8036
      4 O3G        -0.6901   -5.5136   -5.3690 O.3       1 ACP        -0.8036
      5 PB          0.5450   -3.7732   -2.6156 P.3       1 ACP         1.4945
      6 O1B         1.2294   -5.0876   -2.9116 O.co2     1 ACP        -0.8481
      7 O2B         0.4436   -3.2131   -1.2158 O.co2     1 ACP        -0.8481
      8 C3B        -1.1734   -3.8855   -3.2903 C.3       1 ACP        -0.6636
      9 PA          2.6171   -2.0488   -3.8563 P.3       1 ACP         1.6023
     10 O1A         2.5471   -0.8889   -4.8260 O.co2     1 ACP        -0.8673
     11 O2A         3.5415   -3.2178   -4.1184 O.co2     1 ACP        -0.8673
     12 O3A         1.1061   -2.6262   -3.6299 O.3       1 ACP        -0.8150
     13 O5'         2.9203   -1.4822   -2.3523 O.3       1 ACP        -0.5522
     14 C5'         2.2816   -0.2918   -1.9206 C.3       1 ACP         0.2181
     15 C4'         2.7248    0.0226   -0.4980 C.3       1 ACP         0.0915
     16 O4'         2.4697    1.4219   -0.2462 O.3       1 ACP        -0.3675
     17 C3'         1.9404   -0.7419    0.5596 C.3       1 ACP         0.0748
     18 O3'         2.7418   -0.8086    1.7389 O.3       1 ACP        -0.5646
     19 C2'         0.7477    0.1630    0.7858 C.3       1 ACP         0.0804
     20 O2'         0.1373   -0.0577    2.0407 O.3       1 ACP        -0.5882
     21 C1'         1.3733    1.5427    0.6747 C.3       1 ACP         0.3809
     22 N9          0.4520    2.5240    0.1767 N.pl3     1 ACP        -0.4412
     23 C8         -0.3054    2.4845   -1.1576 C.ar      1 ACP         0.1936
     24 N7         -1.0755    3.5806   -1.2691 N.2       1 ACP        -0.2746
     25 C5         -0.8043    4.2306   -0.0942 C.ar      1 ACP        -0.1386
     26 C6         -1.4324    5.5335    0.2646 C.ar      1 ACP         0.4778
     27 N6         -2.2885    6.1054   -0.5675 N.pl3     1 ACP        -0.8290
     28 N1         -1.0537    6.0229    1.4478 N.pl3     1 ACP        -0.6985
     29 C2         -0.1096    5.3242    2.2908 C.ar      1 ACP         0.6179
     30 N3          0.4468    4.1904    1.9960 N.ar      1 ACP        -0.5105
     31 C4          0.0631    3.6855    0.7877 C.ar      1 ACP         0.2753
     32 HOG2       -0.6555   -3.0012   -6.7629 H         1 ACP         0.4487
     33 HOG3       -0.6549   -5.8360   -6.2947 H         1 ACP         0.4487
     34 H3B1       -1.6644   -2.9491   -3.0023 H         1 ACP         0.1088
     35 H3B2       -1.6634   -4.6889   -2.7284 H         1 ACP         0.1088
     36 H5'1        2.5581    0.5234   -2.5967 H         1 ACP         0.0327
     37 H5'2        1.1975   -0.4371   -1.9608 H         1 ACP         0.0327
     38 H4'         3.8046   -0.1390   -0.4011 H         1 ACP         0.1275
     39 H3'         1.6787   -1.7627    0.2719 H         1 ACP         0.0637
     40 HO3'        2.2231   -1.2979    2.3952 H         1 ACP         0.4127
     41 H2'         0.0002   -0.0084   -0.0014 H         1 ACP         0.0692
     42 HO2'       -0.6132    0.5577    2.1063 H         1 ACP         0.4431
     43 H1'         1.7718    1.9211    1.6015 H         1 ACP         0.1199
     44 H8         -0.2991    1.7413   -1.9611 H         1 ACP         0.2941
     45 HN61       -2.5167    5.6603   -1.4447 H         1 ACP         0.4754
     46 HN62       -2.7159    6.9882   -0.3270 H         1 ACP         0.4754
     47 H2          0.1059    5.8491    3.2340 H         1 ACP         0.0886
     48 H48        -1.4532    6.9099    1.7401 H         1 ACP         0.4707
@<TRIPOS>BOND
     1    1    2 2
     2    1    3 1
     3    1    4 1
     4    1    8 1
     5    3   32 1
     6    4   33 1
     7    5    6 2
     8    5    7 1
     9    5    8 1
    10    5   12 1
    11    8   34 1
    12    8   35 1
    13    9   10 2
    14    9   11 1
    15    9   12 1
    16    9   13 1
    17   13   14 1
    18   14   15 1
    19   14   36 1
    20   14   37 1
    21   15   16 1
    22   15   17 1
    23   15   38 1
    24   16   21 1
    25   17   18 1
    26   17   19 1
    27   17   39 1
    28   18   40 1
    29   19   20 1
    30   19   21 1
    31   19   41 1
    32   20   42 1
    33   21   22 1
    34   21   43 1
    35   22   23 ar
    36   22   31 ar
    37   23   24 ar
    38   23   44 1
    39   24   25 ar
    40   25   26 ar
    41   25   31 ar
    42   26   27 1
    43   26   28 ar
    44   27   45 1
    45   27   46 1
    46   28   29 ar
    47   28   48 1
    48   29   30 ar
    49   29   47 1
    50   30   31 ar
@<TRIPOS>SUBSTRUCTURE
     1 ACP         1 GROUP 0 A     ****
@<TRIPOS>MOLECULE
[[5-(6-amino-1,8-dihydropurine-6,8-diylium-7-id-9-yl)-3,4-dihydroxy-tetrahydrofuran-2-yl]methoxy-oxido-phosphoryl]oxy-(phosphonomethyl)phosphinate
   48    50     1     0     0
SMALL
USER_CHARGES

@<TRIPOS>ATOM
      1 PG          4.0138   -4.5557   -1.2507 P.3       1 ACP         1.6558
      2 O1G         4.1193   -3.9604    0.1210 O.2       1 ACP        -0.9020
      3 O2G         2.6516   -4.2177   -2.0510 O.3       1 ACP        -0.8036
      4 O3G         4.1018   -6.1674   -1.3153 O.3       1 ACP        -0.8036
      5 PB          5.5769   -2.2581   -2.8656 P.3       1 ACP         1.4945
      6 O1B         6.7393   -2.2228   -3.8306 O.co2     1 ACP        -0.8481
      7 O2B         5.5604   -1.4454   -1.5917 O.co2     1 ACP        -0.8481
      8 C3B         5.3086   -4.0265   -2.3948 C.3       1 ACP        -0.6636
      9 PA          3.4810   -0.6670   -4.2373 P.3       1 ACP         1.6023
     10 O1A         2.1230   -1.0218   -4.8033 O.co2     1 ACP        -0.8673
     11 O2A         4.4926    0.0849   -5.0747 O.co2     1 ACP        -0.8673
     12 O3A         4.1836   -2.0330   -3.6824 O.3       1 ACP        -0.8150
     13 O5'         3.2885    0.1337   -2.8242 O.3       1 ACP        -0.5522
     14 C5'         2.2816   -0.2918   -1.9206 C.3       1 ACP         0.2181
     15 C4'         2.7248    0.0226   -0.4980 C.3       1 ACP         0.0915
     16 O4'         2.4697    1.4219   -0.2462 O.3       1 ACP        -0.3675
     17 C3'         1.9404   -0.7419    0.5596 C.3       1 ACP         0.0748
     18 O3'         2.7418   -0.8086    1.7389 O.3       1 ACP        -0.5646
     19 C2'         0.7477    0.1630    0.7858 C.3       1 ACP         0.0804
     20 O2'         0.1373   -0.0577    2.0407 O.3       1 ACP        -0.5882
     21 C1'         1.3733    1.5427    0.6747 C.3       1 ACP         0.3809
     22 N9          0.4520    2.5240    0.1767 N.pl3     1 ACP        -0.4412
     23 C8         -0.7463    2.2774   -0.7501 C.ar      1 ACP         0.1936
     24 N7         -1.3714    3.4419   -0.9948 N.2       1 ACP        -0.2746
     25 C5         -0.6104    4.3223   -0.2723 C.ar      1 ACP        -0.1386
     26 C6         -0.9062    5.7820   -0.2194 C.ar      1 ACP         0.4778
     27 N6         -1.9385    6.2713   -0.8881 N.pl3     1 ACP        -0.8290
     28 N1         -0.0613    6.4906    0.5336 N.pl3     1 ACP        -0.6985
     29 C2          1.0416    5.8662    1.2291 C.ar      1 ACP         0.6179
     30 N3          1.3146    4.5989    1.1954 N.ar      1 ACP        -0.5105
     31 C4          0.4541    3.8697    0.4273 C.ar      1 ACP         0.2753
     32 HOG2        1.7930   -4.4931   -1.6650 H         1 ACP         0.4487
     33 HOG3        3.4343   -6.6995   -0.8322 H         1 ACP         0.4487
     34 H3B1        6.2674   -4.3726   -1.9925 H         1 ACP         0.1088
     35 H3B2        5.1439   -4.5647   -3.3352 H         1 ACP         0.1088
     36 H5'1        1.3501    0.2325   -2.1561 H         1 ACP         0.0327
     37 H5'2        2.1268   -1.3683   -2.0445 H         1 ACP         0.0327
     38 H4'         3.8046   -0.1390   -0.4011 H         1 ACP         0.1275
     39 H3'         1.6787   -1.7627    0.2719 H         1 ACP         0.0637
     40 HO3'        3.5553   -1.2733    1.4913 H         1 ACP         0.4127
     41 H2'         0.0002   -0.0084   -0.0014 H         1 ACP         0.0692
     42 HO2'       -0.1554   -0.9852    2.0577 H         1 ACP         0.4431
     43 H1'         1.7718    1.9211    1.6015 H         1 ACP         0.1199
     44 H8         -1.1244    1.3534   -1.1987 H         1 ACP         0.2941
     45 HN61       -2.5259    5.6573   -1.4336 H         1 ACP         0.4754
     46 HN62       -2.1416    7.2600   -0.8539 H         1 ACP         0.4754
     47 H2          1.6509    6.5764    1.8088 H         1 ACP         0.0886
     48 H48        -0.2190    7.4917    0.6033 H         1 ACP         0.4707
@<TRIPOS>BOND
     1    1    2 2
     2    1    3 1
     3    1    4 1
     4    1    8 1
     5    3   32 1
     6    4   33 1
     7    5    6 2
     8    5    7 1
     9    5    8 1
    10    5   12 1
    11    8   34 1
    12    8   35 1
    13    9   10 2
    14    9   11 1
    15    9   12 1
    16    9   13 1
    17   13   14 1
    18   14   15 1
    19   14   36 1
    20   14   37 1
    21   15   16 1
    22   15   17 1
    23   15   38 1
    24   16   21 1
    25   17   18 1
    26   17   19 1
    27   17   39 1
    28   18   40 1
    29   19   20 1
    30   19   21 1
    31   19   41 1
    32   20   42 1
    33   21   22 1
    34   21   43 1
    35   22   23 ar
    36   22   31 ar
    37   23   24 ar
    38   23   44 1
    39   24   25 ar
    40   25   26 ar
    41   25   31 ar
    42   26   27 1
    43   26   28 ar
    44   27   45 1
    45   27   46 1
    46   28   29 ar
    47   28   48 1
    48   29   30 ar
    49   29   47 1
    50   30   31 ar
@<TRIPOS>SUBSTRUCTURE
     1 ACP         1 GROUP 0 A     ****
@<TRIPOS>MOLECULE
[[5-(6-amino-1,8-dihydropurine-6,8-diylium-7-id-9-yl)-3,4-dihydroxy-tetrahydrofuran-2-yl]methoxy-oxido-phosphoryl]oxy-(phosphonomethyl)phosphinate
   48    50     1     0     0
SMALL
USER_CHARGES

@<TRIPOS>ATOM
      1 PG          4.0485   -6.5657    2.8079 P.3       1 ACP         1.6558
      2 O1G         4.4646   -7.9383    2.3719 O.2       1 ACP        -0.9020
      3 O2G         3.1659   -5.7358    1.7391 O.3       1 ACP        -0.8036
      4 O3G         5.2578   -5.5564    3.1666 O.3       1 ACP        -0.8036
      5 PB          1.3923   -7.3860    4.4209 P.3       1 ACP         1.4945
      6 O1B         0.8557   -7.1303    5.8102 O.co2     1 ACP        -0.8481
      7 O2B         1.5685   -8.7813    3.8678 O.co2     1 ACP        -0.8481
      8 C3B         3.0297   -6.5343    4.3000 C.3       1 ACP        -0.6636
      9 PA         -1.0045   -6.4099    2.9689 P.3       1 ACP         1.6023
     10 O1A        -1.7675   -5.9091    4.1762 O.co2     1 ACP        -0.8673
     11 O2A        -1.3833   -7.7160    2.3052 O.co2     1 ACP        -0.8673
     12 O3A         0.5836   -6.4640    3.3461 O.3       1 ACP        -0.8150
     13 O5'        -0.9728   -5.2428    1.8236 O.3       1 ACP        -0.5522
     14 C5'        -0.7840   -3.8935    2.2172 C.3       1 ACP         0.2181
     15 C4'        -0.0724   -3.1466    1.1027 C.3       1 ACP         0.0915
     16 O4'        -0.8674   -3.1929   -0.0945 O.3       1 ACP        -0.3675
     17 C3'         0.1338   -1.6715    1.4027 C.3       1 ACP         0.0748
     18 O3'         1.2893   -1.4445    2.1808 O.3       1 ACP        -0.5646
     19 C2'         0.2158   -1.0724    0.0128 C.3       1 ACP         0.0804
     20 O2'         1.5141   -1.2448   -0.5513 O.3       1 ACP        -0.5882
     21 C1'        -0.7897   -1.9176   -0.7583 C.3       1 ACP         0.3809
     22 N9         -2.1040   -1.3333   -0.7704 N.pl3     1 ACP        -0.4412
     23 C8         -3.2124   -1.5345    0.2719 C.ar      1 ACP         0.1936
     24 N7         -4.2964   -0.8234   -0.0828 N.2       1 ACP        -0.2746
     25 C5         -3.8754   -0.2386   -1.2478 C.ar      1 ACP        -0.1386
     26 C6         -4.7432    0.6719   -2.0470 C.ar      1 ACP         0.4778
     27 N6         -5.9725    0.9415   -1.6366 N.pl3     1 ACP        -0.8290
     28 N1         -4.1703    1.1517   -3.1536 N.pl3     1 ACP        -0.6985
     29 C2         -2.8174    0.7994   -3.5215 C.ar      1 ACP         0.6179
     30 N3         -2.0475    0.0097   -2.8393 N.ar      1 ACP        -0.5105
     31 C4         -2.6278   -0.4836   -1.7071 C.ar      1 ACP         0.2753
     32 HOG2        3.5482   -5.5401    0.8573 H         1 ACP         0.4487
     33 HOG3        5.9155   -5.3373    2.4728 H         1 ACP         0.4487
     34 H3B1        3.6326   -6.9380    5.1211 H         1 ACP         0.1088
     35 H3B2        2.8368   -5.4809    4.5333 H         1 ACP         0.1088
     36 H5'1       -1.7614   -3.4428    2.4166 H         1 ACP         0.0327
     37 H5'2       -0.1870   -3.8724    3.1344 H         1 ACP         0.0327
     38 H4'         0.8883   -3.6447    0.8783 H         1 ACP         0.1275
     39 H3'        -0.7368   -1.2359    1.9871 H         1 ACP         0.0637
     40 HO3'        1.3407   -0.4871    2.3218 H         1 ACP         0.4127
     41 H2'        -0.0343   -0.0280    0.0196 H         1 ACP         0.0692
     42 HO2'        2.1443   -0.7955    0.0378 H         1 ACP         0.4431
     43 H1'        -0.5175   -2.1046   -1.7826 H         1 ACP         0.1199
     44 H8         -3.2310   -2.1319    1.1889 H         1 ACP         0.2941
     45 HN61       -6.3230    0.5316   -0.7829 H         1 ACP         0.4754
     46 HN62       -6.5628    1.5584   -2.1760 H         1 ACP         0.4754
     47 H2         -2.4822    1.2710   -4.4579 H         1 ACP         0.0886
     48 H48        -4.7200    1.7780   -3.7346 H         1 ACP         0.4707
@<TRIPOS>BOND
     1    1    2 2
     2    1    3 1
     3    1    4 1
     4    1    8 1
     5    3   32 1
     6    4   33 1
     7    5    6 2
     8    5    7 1
     9    5    8 1
    10    5   12 1
    11    8   34 1
    12    8   35 1
    13    9   10 2
    14    9   11 1
    15    9   12 1
    16    9   13 1
    17   13   14 1
    18   14   15 1
    19   14   36 1
    20   14   37 1
    21   15   16 1
    22   15   17 1
    23   15   38 1
    24   16   21 1
    25   17   18 1
    26   17   19 1
    27   17   39 1
    28   18   40 1
    29   19   20 1
    30   19   21 1
    31   19   41 1
    32   20   42 1
    33   21   22 1
    34   21   43 1
    35   22   23 ar
    36   22   31 ar
    37   23   24 ar
    38   23   44 1
    39   24   25 ar
    40   25   26 ar
    41   25   31 ar
    42   26   27 1
    43   26   28 ar
    44   27   45 1
    45   27   46 1
    46   28   29 ar
    47   28   48 1
    48   29   30 ar
    49   29   47 1
    50   30   31 ar
@<TRIPOS>SUBSTRUCTURE
     1 ACP         1 GROUP 0 A     ****
@<TRIPOS>MOLECULE
[[5-(6-amino-1,8-dihydropurine-6,8-diylium-7-id-9-yl)-3,4-dihydroxy-tetrahydrofuran-2-yl]methoxy-oxido-phosphoryl]oxy-(phosphonomethyl)phosphinate
   48    50     1     0     0
SMALL
USER_CHARGES

@<TRIPOS>ATOM
      1 PG          4.5203   -2.7339   -6.6635 P.3       1 ACP         1.6558
      2 O1G         4.9738   -4.1606   -6.7423 O.2       1 ACP        -0.9020
      3 O2G         4.9835   -1.7897   -7.8900 O.3       1 ACP        -0.8036
      4 O3G         5.0090   -1.9228   -5.3547 O.3       1 ACP        -0.8036
      5 PB          1.9073   -0.8666   -6.5380 P.3       1 ACP         1.4945
      6 O1B         0.4150   -1.1041   -6.5337 O.co2     1 ACP        -0.8481
      7 O2B         2.5795    0.0269   -7.5546 O.co2     1 ACP        -0.8481
      8 C3B         2.7259   -2.5225   -6.6327 C.3       1 ACP        -0.6636
      9 PA          2.3308    0.9611   -4.2388 P.3       1 ACP         1.6023
     10 O1A         0.8771    1.3091   -4.0021 O.co2     1 ACP        -0.8673
     11 O2A         3.2554    1.9407   -4.9284 O.co2     1 ACP        -0.8673
     12 O3A         2.3991   -0.4624   -5.0367 O.3       1 ACP        -0.8150
     13 O5'         3.0199    0.5139   -2.8245 O.3       1 ACP        -0.5522
     14 C5'         2.2816   -0.2918   -1.9206 C.3       1 ACP         0.2181
     15 C4'         2.7248    0.0226   -0.4980 C.3       1 ACP         0.0915
     16 O4'         2.4697    1.4219   -0.2462 O.3       1 ACP        -0.3675
     17 C3'         1.9404   -0.7419    0.5596 C.3       1 ACP         0.0748
     18 O3'         2.7418   -0.8086    1.7389 O.3       1 ACP        -0.5646
     19 C2'         0.7477    0.1630    0.7858 C.3       1 ACP         0.0804
     20 O2'         0.1373   -0.0577    2.0407 O.3       1 ACP        -0.5882
     21 C1'         1.3733    1.5427    0.6747 C.3       1 ACP         0.3809
     22 N9          0.4520    2.5240    0.1767 N.pl3     1 ACP        -0.4412
     23 C8         -0.3054    2.4845   -1.1576 C.ar      1 ACP         0.1936
     24 N7         -1.0755    3.5806   -1.2691 N.2       1 ACP        -0.2746
     25 C5         -0.8043    4.2306   -0.0942 C.ar      1 ACP        -0.1386
     26 C6         -1.4324    5.5335    0.2646 C.ar      1 ACP         0.4778
     27 N6         -2.2885    6.1054   -0.5675 N.pl3     1 ACP        -0.8290
     28 N1         -1.0537    6.0229    1.4478 N.pl3     1 ACP        -0.6985
     29 C2         -0.1096    5.3242    2.2908 C.ar      1 ACP         0.6179
     30 N3          0.4468    4.1904    1.9960 N.ar      1 ACP        -0.5105
     31 C4          0.0631    3.6855    0.7877 C.ar      1 ACP         0.2753
     32 HOG2        5.9417   -1.6684   -8.0605 H         1 ACP         0.4487
     33 HOG3        5.9705   -1.8192   -5.1914 H         1 ACP         0.4487
     34 H3B1        2.3208   -2.9999   -7.5321 H         1 ACP         0.1088
     35 H3B2        2.3517   -3.0906   -5.7734 H         1 ACP         0.1088
     36 H5'1        1.2154   -0.0780   -2.0455 H         1 ACP         0.0327
     37 H5'2        2.4646   -1.3453   -2.1548 H         1 ACP         0.0327
     38 H4'         3.8046   -0.1390   -0.4011 H         1 ACP         0.1275
     39 H3'         1.6787   -1.7627    0.2719 H         1 ACP         0.0637
     40 HO3'        2.2231   -1.2979    2.3952 H         1 ACP         0.4127
     41 H2'         0.0002   -0.0084   -0.0014 H         1 ACP         0.0692
     42 HO2'       -0.6132    0.5577    2.1063 H         1 ACP         0.4431
     43 H1'         1.7718    1.9211    1.6015 H         1 ACP         0.1199
     44 H8         -0.2991    1.7413   -1.9611 H         1 ACP         0.2941
     45 HN61       -2.5167    5.6603   -1.4447 H         1 ACP         0.4754
     46 HN62       -2.7159    6.9882   -0.3270 H         1 ACP         0.4754
     47 H2          0.1059    5.8491    3.2340 H         1 ACP         0.0886
     48 H48        -1.4532    6.9099    1.7401 H         1 ACP         0.4707
@<TRIPOS>BOND
     1    1    2 2
     2    1    3 1
     3    1    4 1
     4    1    8 1
     5    3   32 1
     6    4   33 1
     7    5    6 2
     8    5    7 1
     9    5    8 1
    10    5   12 1
    11    8   34 1
    12    8   35 1
    13    9   10 2
    14    9   11 1
    15    9   12 1
    16    9   13 1
    17   13   14 1
    18   14   15 1
    19   14   36 1
    20   14   37 1
    21   15   16 1
    22   15   17 1
    23   15   38 1
    24   16   21 1
    25   17   18 1
    26   17   19 1
    27   17   39 1
    28   18   40 1
    29   19   20 1
    30   19   21 1
    31   19   41 1
    32   20   42 1
    33   21   22 1
    34   21   43 1
    35   22   23 ar
    36   22   31 ar
    37   23   24 ar
    38   23   44 1
    39   24   25 ar
    40   25   26 ar
    41   25   31 ar
    42   26   27 1
    43   26   28 ar
    44   27   45 1
    45   27   46 1
    46   28   29 ar
    47   28   48 1
    48   29   30 ar
    49   29   47 1
    50   30   31 ar
@<TRIPOS>SUBSTRUCTURE
     1 ACP         1 GROUP 0 A     ****
@<TRIPOS>MOLECULE
[[5-(6-amino-1,8-dihydropurine-6,8-diylium-7-id-9-yl)-3,4-dihydroxy-tetrahydrofuran-2-yl]methoxy-oxido-phosphoryl]oxy-(phosphonomethyl)phosphinate
   48    50     1     0     0
SMALL
USER_CHARGES

@<TRIPOS>ATOM
      1 PG          0.4329   -5.3698    0.1451 P.3       1 ACP         1.6558
      2 O1G         0.8464   -6.7500   -0.2689 O.2       1 ACP        -0.9020
      3 O2G         1.6402   -4.3160    0.3506 O.3       1 ACP        -0.8036
      4 O3G        -0.3897   -5.2798    1.5325 O.3       1 ACP        -0.8036
      5 PB         -0.1611   -4.1760   -2.7793 P.3       1 ACP         1.4945
      6 O1B        -1.3251   -3.4723   -3.4376 O.co2     1 ACP        -0.8481
      7 O2B         0.4414   -5.4414   -3.3445 O.co2     1 ACP        -0.8481
      8 C3B        -0.6524   -4.5320   -1.0321 C.3       1 ACP        -0.6636
      9 PA          2.1608   -2.4473   -3.4325 P.3       1 ACP         1.6023
     10 O1A         1.4738   -1.5919   -4.4751 O.co2     1 ACP        -0.8673
     11 O2A         3.1184   -3.5441   -3.8445 O.co2     1 ACP        -0.8673
     12 O3A         1.0192   -3.0965   -2.4615 O.3       1 ACP        -0.8150
     13 O5'         2.9203   -1.4822   -2.3523 O.3       1 ACP        -0.5522
     14 C5'         2.2816   -0.2918   -1.9206 C.3       1 ACP         0.2181
     15 C4'         2.7248    0.0226   -0.4980 C.3       1 ACP         0.0915
     16 O4'         2.4697    1.4219   -0.2462 O.3       1 ACP        -0.3675
     17 C3'         1.9404   -0.7419    0.5596 C.3       1 ACP         0.0748
     18 O3'         2.7418   -0.8086    1.7389 O.3       1 ACP        -0.5646
     19 C2'         0.7477    0.1630    0.7858 C.3       1 ACP         0.0804
     20 O2'         0.1373   -0.0577    2.0407 O.3       1 ACP        -0.5882
     21 C1'         1.3733    1.5427    0.6747 C.3       1 ACP         0.3809
     22 N9          0.4520    2.5240    0.1767 N.pl3     1 ACP        -0.4412
     23 C8          0.5793    3.3338   -1.1209 C.ar      1 ACP         0.1936
     24 N7         -0.4807    4.1508   -1.2458 N.2       1 ACP        -0.2746
     25 C5         -1.1921    3.8572   -0.1126 C.ar      1 ACP        -0.1386
     26 C6         -2.4855    4.5203    0.2163 C.ar      1 ACP         0.4778
     27 N6         -2.9873    5.4319   -0.6020 N.pl3     1 ACP        -0.8290
     28 N1         -3.0414    4.1119    1.3596 N.pl3     1 ACP        -0.6985
     29 C2         -2.4169    3.1071    2.1904 C.ar      1 ACP         0.6179
     30 N3         -1.2928    2.5191    1.9210 N.ar      1 ACP        -0.5105
     31 C4         -0.7202    2.9326    0.7534 C.ar      1 ACP         0.2753
     32 HOG2        2.3305   -4.5091    1.0201 H         1 ACP         0.4487
     33 HOG3        0.0334   -5.6000    2.3574 H         1 ACP         0.4487
     34 H3B1       -1.5789   -5.1132   -1.0996 H         1 ACP         0.1088
     35 H3B2       -0.9145   -3.5631   -0.5918 H         1 ACP         0.1088
     36 H5'1        2.5581    0.5234   -2.5967 H         1 ACP         0.0327
     37 H5'2        1.1975   -0.4371   -1.9608 H         1 ACP         0.0327
     38 H4'         3.8046   -0.1390   -0.4011 H         1 ACP         0.1275
     39 H3'         1.6787   -1.7627    0.2719 H         1 ACP         0.0637
     40 HO3'        3.5553   -1.2733    1.4913 H         1 ACP         0.4127
     41 H2'         0.0002   -0.0084   -0.0014 H         1 ACP         0.0692
     42 HO2'        0.8091    0.1203    2.7213 H         1 ACP         0.4431
     43 H1'         1.7718    1.9211    1.6015 H         1 ACP         0.1199
     44 H8          1.3565    3.3309   -1.8916 H         1 ACP         0.2941
     45 HN61       -2.4952    5.6785   -1.4487 H         1 ACP         0.4754
     46 HN62       -3.8637    5.8828   -0.3819 H         1 ACP         0.4754
     47 H2         -2.9911    2.8734    3.1000 H         1 ACP         0.0886
     48 H48        -3.9253    4.5332    1.6302 H         1 ACP         0.4707
@<TRIPOS>BOND
     1    1    2 2
     2    1    3 1
     3    1    4 1
     4    1    8 1
     5    3   32 1
     6    4   33 1
     7    5    6 2
     8    5    7 1
     9    5    8 1
    10    5   12 1
    11    8   34 1
    12    8   35 1
    13    9   10 2
    14    9   11 1
    15    9   12 1
    16    9   13 1
    17   13   14 1
    18   14   15 1
    19   14   36 1
    20   14   37 1
    21   15   16 1
    22   15   17 1
    23   15   38 1
    24   16   21 1
    25   17   18 1
    26   17   19 1
    27   17   39 1
    28   18   40 1
    29   19   20 1
    30   19   21 1
    31   19   41 1
    32   20   42 1
    33   21   22 1
    34   21   43 1
    35   22   23 ar
    36   22   31 ar
    37   23   24 ar
    38   23   44 1
    39   24   25 ar
    40   25   26 ar
    41   25   31 ar
    42   26   27 1
    43   26   28 ar
    44   27   45 1
    45   27   46 1
    46   28   29 ar
    47   28   48 1
    48   29   30 ar
    49   29   47 1
    50   30   31 ar
@<TRIPOS>SUBSTRUCTURE
     1 ACP         1 GROUP 0 A     ****
@<TRIPOS>MOLECULE
[[5-(6-amino-1,8-dihydropurine-6,8-diylium-7-id-9-yl)-3,4-dihydroxy-tetrahydrofuran-2-yl]methoxy-oxido-phosphoryl]oxy-(phosphonomethyl)phosphinate
   48    50     1     0     0
SMALL
USER_CHARGES

@<TRIPOS>ATOM
      1 PG          1.7106   -2.0909   -7.8987 P.3       1 ACP         1.6558
      2 O1G         2.4161   -1.3113   -8.9672 O.2       1 ACP        -0.9020
      3 O2G         1.0409   -3.4800   -8.3807 O.3       1 ACP        -0.8036
      4 O3G         0.4961   -1.3186   -7.1650 O.3       1 ACP        -0.8036
      5 PB          3.6739   -1.3905   -5.4523 P.3       1 ACP         1.4945
      6 O1B         4.6006   -0.6030   -6.3494 O.co2     1 ACP        -0.8481
      7 O2B         4.1717   -2.1475   -4.2429 O.co2     1 ACP        -0.8481
      8 C3B         2.7679   -2.5961   -6.5230 C.3       1 ACP        -0.6636
      9 PA          2.3308    0.9611   -4.2388 P.3       1 ACP         1.6023
     10 O1A         0.8771    1.3091   -4.0021 O.co2     1 ACP        -0.8673
     11 O2A         3.2554    1.9407   -4.9284 O.co2     1 ACP        -0.8673
     12 O3A         2.3991   -0.4624   -5.0367 O.3       1 ACP        -0.8150
     13 O5'         3.0199    0.5139   -2.8245 O.3       1 ACP        -0.5522
     14 C5'         2.2816   -0.2918   -1.9206 C.3       1 ACP         0.2181
     15 C4'         2.7248    0.0226   -0.4980 C.3       1 ACP         0.0915
     16 O4'         2.4697    1.4219   -0.2462 O.3       1 ACP        -0.3675
     17 C3'         1.9404   -0.7419    0.5596 C.3       1 ACP         0.0748
     18 O3'         2.7418   -0.8086    1.7389 O.3       1 ACP        -0.5646
     19 C2'         0.7477    0.1630    0.7858 C.3       1 ACP         0.0804
     20 O2'         0.1373   -0.0577    2.0407 O.3       1 ACP        -0.5882
     21 C1'         1.3733    1.5427    0.6747 C.3       1 ACP         0.3809
     22 N9          0.4520    2.5240    0.1767 N.pl3     1 ACP        -0.4412
     23 C8         -1.0660    2.5608    0.3999 C.ar      1 ACP         0.1936
     24 N7         -1.5852    3.6333   -0.2221 N.2       1 ACP        -0.2746
     25 C5         -0.4682    4.1996   -0.7771 C.ar      1 ACP        -0.1386
     26 C6         -0.5216    5.4476   -1.5899 C.ar      1 ACP         0.4778
     27 N6         -1.6813    6.0510   -1.7982 N.pl3     1 ACP        -0.8290
     28 N1          0.6621    5.8575   -2.0523 N.pl3     1 ACP        -0.6985
     29 C2          1.8795    5.1301   -1.7717 C.ar      1 ACP         0.6179
     30 N3          1.9458    4.0434   -1.0670 N.ar      1 ACP        -0.5105
     31 C4          0.7388    3.6199   -0.5917 C.ar      1 ACP         0.2753
     32 HOG2        0.3510   -3.4581   -9.0775 H         1 ACP         0.4487
     33 HOG3       -0.2654   -1.0121   -7.7019 H         1 ACP         0.4487
     34 H3B1        2.1570   -3.1959   -5.8389 H         1 ACP         0.1088
     35 H3B2        3.5331   -3.2632   -6.9361 H         1 ACP         0.1088
     36 H5'1        1.2154   -0.0780   -2.0455 H         1 ACP         0.0327
     37 H5'2        2.4646   -1.3453   -2.1548 H         1 ACP         0.0327
     38 H4'         3.8046   -0.1390   -0.4011 H         1 ACP         0.1275
     39 H3'         1.6787   -1.7627    0.2719 H         1 ACP         0.0637
     40 HO3'        2.2231   -1.2979    2.3952 H         1 ACP         0.4127
     41 H2'         0.0002   -0.0084   -0.0014 H         1 ACP         0.0692
     42 HO2'       -0.1554   -0.9852    2.0577 H         1 ACP         0.4431
     43 H1'         1.7718    1.9211    1.6015 H         1 ACP         0.1199
     44 H8         -1.7235    1.8833    0.9537 H         1 ACP         0.2941
     45 HN61       -2.5296    5.6672   -1.4072 H         1 ACP         0.4754
     46 HN62       -1.7205    6.8969   -2.3483 H         1 ACP         0.4754
     47 H2          2.7750    5.5878   -2.2190 H         1 ACP         0.0886
     48 H48         0.6808    6.7046   -2.6128 H         1 ACP         0.4707
@<TRIPOS>BOND
     1    1    2 2
     2    1    3 1
     3    1    4 1
     4    1    8 1
     5    3   32 1
     6    4   33 1
     7    5    6 2
     8    5    7 1
     9    5    8 1
    10    5   12 1
    11    8   34 1
    12    8   35 1
    13    9   10 2
    14    9   11 1
    15    9   12 1
    16    9   13 1
    17   13   14 1
    18   14   15 1
    19   14   36 1
    20   14   37 1
    21   15   16 1
    22   15   17 1
    23   15   38 1
    24   16   21 1
    25   17   18 1
    26   17   19 1
    27   17   39 1
    28   18   40 1
    29   19   20 1
    30   19   21 1
    31   19   41 1
    32   20   42 1
    33   21   22 1
    34   21   43 1
    35   22   23 ar
    36   22   31 ar
    37   23   24 ar
    38   23   44 1
    39   24   25 ar
    40   25   26 ar
    41   25   31 ar
    42   26   27 1
    43   26   28 ar
    44   27   45 1
    45   27   46 1
    46   28   29 ar
    47   28   48 1
    48   29   30 ar
    49   29   47 1
    50   30   31 ar
@<TRIPOS>SUBSTRUCTURE
     1 ACP         1 GROUP 0 A     ****
@<TRIPOS>MOLECULE
[[5-(6-amino-1,8-dihydropurine-6,8-diylium-7-id-9-yl)-3,4-dihydroxy-tetrahydrofuran-2-yl]methoxy-oxido-phosphoryl]oxy-(phosphonomethyl)phosphinate
   48    50     1     0     0
SMALL
USER_CHARGES

@<TRIPOS>ATOM
      1 PG          5.0387    1.2890   -5.7795 P.3       1 ACP         1.6558
      2 O1G         4.5767    1.5894   -4.3853 O.2       1 ACP        -0.9020
      3 O2G         6.5541    1.7343   -6.1195 O.3       1 ACP        -0.8036
      4 O3G         4.1695    1.9693   -6.9590 O.3       1 ACP        -0.8036
      5 PB          3.4755   -1.4893   -6.1885 P.3       1 ACP         1.4945
      6 O1B         3.8620   -2.8895   -6.6052 O.co2     1 ACP        -0.8481
      7 O2B         2.4012   -0.7022   -6.9026 O.co2     1 ACP        -0.8481
      8 C3B         5.0158   -0.4657   -6.2107 C.3       1 ACP        -0.6636
      9 PA          2.1358   -2.2685   -3.6578 P.3       1 ACP         1.6023
     10 O1A         2.4845   -3.7405   -3.7033 O.co2     1 ACP        -0.8673
     11 O2A         0.7432   -1.7950   -4.0135 O.co2     1 ACP        -0.8673
     12 O3A         3.2094   -1.4534   -4.5800 O.3       1 ACP        -0.8150
     13 O5'         2.5238   -1.6632   -2.1888 O.3       1 ACP        -0.5522
     14 C5'         2.2816   -0.2918   -1.9206 C.3       1 ACP         0.2181
     15 C4'         2.7248    0.0226   -0.4980 C.3       1 ACP         0.0915
     16 O4'         2.4697    1.4219   -0.2462 O.3       1 ACP        -0.3675
     17 C3'         1.9404   -0.7419    0.5596 C.3       1 ACP         0.0748
     18 O3'         2.7418   -0.8086    1.7389 O.3       1 ACP        -0.5646
     19 C2'         0.7477    0.1630    0.7858 C.3       1 ACP         0.0804
     20 O2'         0.1373   -0.0577    2.0407 O.3       1 ACP        -0.5882
     21 C1'         1.3733    1.5427    0.6747 C.3       1 ACP         0.3809
     22 N9          0.4520    2.5240    0.1767 N.pl3     1 ACP        -0.4412
     23 C8         -1.0660    2.5608    0.3999 C.ar      1 ACP         0.1936
     24 N7         -1.5852    3.6333   -0.2221 N.2       1 ACP        -0.2746
     25 C5         -0.4682    4.1996   -0.7771 C.ar      1 ACP        -0.1386
     26 C6         -0.5216    5.4476   -1.5899 C.ar      1 ACP         0.4778
     27 N6         -1.6813    6.0510   -1.7982 N.pl3     1 ACP        -0.8290
     28 N1          0.6621    5.8575   -2.0523 N.pl3     1 ACP        -0.6985
     29 C2          1.8795    5.1301   -1.7717 C.ar      1 ACP         0.6179
     30 N3          1.9458    4.0434   -1.0670 N.ar      1 ACP        -0.5105
     31 C4          0.7388    3.6199   -0.5917 C.ar      1 ACP         0.2753
     32 HOG2        6.7990    2.6812   -6.0451 H         1 ACP         0.4487
     33 HOG3        4.1004    2.9470   -6.9950 H         1 ACP         0.4487
     34 H3B1        5.4187   -0.5625   -7.2252 H         1 ACP         0.1088
     35 H3B2        5.7195   -0.9695   -5.5382 H         1 ACP         0.1088
     36 H5'1        2.8430    0.3138   -2.6391 H         1 ACP         0.0327
     37 H5'2        1.2126   -0.0907   -2.0421 H         1 ACP         0.0327
     38 H4'         3.8046   -0.1390   -0.4011 H         1 ACP         0.1275
     39 H3'         1.6787   -1.7627    0.2719 H         1 ACP         0.0637
     40 HO3'        2.2231   -1.2979    2.3952 H         1 ACP         0.4127
     41 H2'         0.0002   -0.0084   -0.0014 H         1 ACP         0.0692
     42 HO2'       -0.1554   -0.9852    2.0577 H         1 ACP         0.4431
     43 H1'         1.7718    1.9211    1.6015 H         1 ACP         0.1199
     44 H8         -1.7235    1.8833    0.9537 H         1 ACP         0.2941
     45 HN61       -2.5296    5.6672   -1.4072 H         1 ACP         0.4754
     46 HN62       -1.7205    6.8969   -2.3483 H         1 ACP         0.4754
     47 H2          2.7750    5.5878   -2.2190 H         1 ACP         0.0886
     48 H48         0.6808    6.7046   -2.6128 H         1 ACP         0.4707
@<TRIPOS>BOND
     1    1    2 2
     2    1    3 1
     3    1    4 1
     4    1    8 1
     5    3   32 1
     6    4   33 1
     7    5    6 2
     8    5    7 1
     9    5    8 1
    10    5   12 1
    11    8   34 1
    12    8   35 1
    13    9   10 2
    14    9   11 1
    15    9   12 1
    16    9   13 1
    17   13   14 1
    18   14   15 1
    19   14   36 1
    20   14   37 1
    21   15   16 1
    22   15   17 1
    23   15   38 1
    24   16   21 1
    25   17   18 1
    26   17   19 1
    27   17   39 1
    28   18   40 1
    29   19   20 1
    30   19   21 1
    31   19   41 1
    32   20   42 1
    33   21   22 1
    34   21   43 1
    35   22   23 ar
    36   22   31 ar
    37   23   24 ar
    38   23   44 1
    39   24   25 ar
    40   25   26 ar
    41   25   31 ar
    42   26   27 1
    43   26   28 ar
    44   27   45 1
    45   27   46 1
    46   28   29 ar
    47   28   48 1
    48   29   30 ar
    49   29   47 1
    50   30   31 ar
@<TRIPOS>SUBSTRUCTURE
     1 ACP         1 GROUP 0 A     ****
@<TRIPOS>MOLECULE
[[5-(6-amino-1,8-dihydropurine-6,8-diylium-7-id-9-yl)-3,4-dihydroxy-tetrahydrofuran-2-yl]methoxy-oxido-phosphoryl]oxy-(phosphonomethyl)phosphinate
   48    50     1     0     0
SMALL
USER_CHARGES

@<TRIPOS>ATOM
      1 PG          6.3917   -4.0257   -1.8225 P.3       1 ACP         1.6558
      2 O1G         6.2522   -2.6965   -1.1434 O.2       1 ACP        -0.9020
      3 O2G         6.4000   -5.3089   -0.8410 O.3       1 ACP        -0.8036
      4 O3G         7.7306   -4.2151   -2.7062 O.3       1 ACP        -0.8036
      5 PB          4.6995   -3.3625   -4.4733 P.3       1 ACP         1.4945
      6 O1B         3.5370   -4.0033   -5.1955 O.co2     1 ACP        -0.8481
      7 O2B         6.0145   -3.0720   -5.1588 O.co2     1 ACP        -0.8481
      8 C3B         5.0686   -4.4076   -2.9926 C.3       1 ACP        -0.6636
      9 PA          3.4810   -0.6670   -4.2373 P.3       1 ACP         1.6023
     10 O1A         2.1230   -1.0218   -4.8033 O.co2     1 ACP        -0.8673
     11 O2A         4.4926    0.0849   -5.0747 O.co2     1 ACP        -0.8673
     12 O3A         4.1836   -2.0330   -3.6824 O.3       1 ACP        -0.8150
     13 O5'         3.2885    0.1337   -2.8242 O.3       1 ACP        -0.5522
     14 C5'         2.2816   -0.2918   -1.9206 C.3       1 ACP         0.2181
     15 C4'         2.7248    0.0226   -0.4980 C.3       1 ACP         0.0915
     16 O4'         2.4697    1.4219   -0.2462 O.3       1 ACP        -0.3675
     17 C3'         1.9404   -0.7419    0.5596 C.3       1 ACP         0.0748
     18 O3'         2.7418   -0.8086    1.7389 O.3       1 ACP        -0.5646
     19 C2'         0.7477    0.1630    0.7858 C.3       1 ACP         0.0804
     20 O2'         0.1373   -0.0577    2.0407 O.3       1 ACP        -0.5882
     21 C1'         1.3733    1.5427    0.6747 C.3       1 ACP         0.3809
     22 N9          0.4520    2.5240    0.1767 N.pl3     1 ACP        -0.4412
     23 C8         -0.7463    2.2774   -0.7501 C.ar      1 ACP         0.1936
     24 N7         -1.3714    3.4419   -0.9948 N.2       1 ACP        -0.2746
     25 C5         -0.6104    4.3223   -0.2723 C.ar      1 ACP        -0.1386
     26 C6         -0.9062    5.7820   -0.2194 C.ar      1 ACP         0.4778
     27 N6         -1.9385    6.2713   -0.8881 N.pl3     1 ACP        -0.8290
     28 N1         -0.0613    6.4906    0.5336 N.pl3     1 ACP        -0.6985
     29 C2          1.0416    5.8662    1.2291 C.ar      1 ACP         0.6179
     30 N3          1.3146    4.5989    1.1954 N.ar      1 ACP        -0.5105
     31 C4          0.4541    3.8697    0.4273 C.ar      1 ACP         0.2753
     32 HOG2        7.0987   -5.3787   -0.1561 H         1 ACP         0.4487
     33 HOG3        8.6044   -4.1407   -2.2669 H         1 ACP         0.4487
     34 H3B1        5.2520   -5.4153   -3.3821 H         1 ACP         0.1088
     35 H3B2        4.1365   -4.4520   -2.4180 H         1 ACP         0.1088
     36 H5'1        1.3501    0.2325   -2.1561 H         1 ACP         0.0327
     37 H5'2        2.1268   -1.3683   -2.0445 H         1 ACP         0.0327
     38 H4'         3.8046   -0.1390   -0.4011 H         1 ACP         0.1275
     39 H3'         1.6787   -1.7627    0.2719 H         1 ACP         0.0637
     40 HO3'        2.2231   -1.2979    2.3952 H         1 ACP         0.4127
     41 H2'         0.0002   -0.0084   -0.0014 H         1 ACP         0.0692
     42 HO2'       -0.6132    0.5577    2.1063 H         1 ACP         0.4431
     43 H1'         1.7718    1.9211    1.6015 H         1 ACP         0.1199
     44 H8         -1.1244    1.3534   -1.1987 H         1 ACP         0.2941
     45 HN61       -2.5259    5.6573   -1.4336 H         1 ACP         0.4754
     46 HN62       -2.1416    7.2600   -0.8539 H         1 ACP         0.4754
     47 H2          1.6509    6.5764    1.8088 H         1 ACP         0.0886
     48 H48        -0.2190    7.4917    0.6033 H         1 ACP         0.4707
@<TRIPOS>BOND
     1    1    2 2
     2    1    3 1
     3    1    4 1
     4    1    8 1
     5    3   32 1
     6    4   33 1
     7    5    6 2
     8    5    7 1
     9    5    8 1
    10    5   12 1
    11    8   34 1
    12    8   35 1
    13    9   10 2
    14    9   11 1
    15    9   12 1
    16    9   13 1
    17   13   14 1
    18   14   15 1
    19   14   36 1
    20   14   37 1
    21   15   16 1
    22   15   17 1
    23   15   38 1
    24   16   21 1
    25   17   18 1
    26   17   19 1
    27   17   39 1
    28   18   40 1
    29   19   20 1
    30   19   21 1
    31   19   41 1
    32   20   42 1
    33   21   22 1
    34   21   43 1
    35   22   23 ar
    36   22   31 ar
    37   23   24 ar
    38   23   44 1
    39   24   25 ar
    40   25   26 ar
    41   25   31 ar
    42   26   27 1
    43   26   28 ar
    44   27   45 1
    45   27   46 1
    46   28   29 ar
    47   28   48 1
    48   29   30 ar
    49   29   47 1
    50   30   31 ar
@<TRIPOS>SUBSTRUCTURE
     1 ACP         1 GROUP 0 A     ****
@<TRIPOS>MOLECULE
[[5-(6-amino-1,8-dihydropurine-6,8-diylium-7-id-9-yl)-3,4-dihydroxy-tetrahydrofuran-2-yl]methoxy-oxido-phosphoryl]oxy-(phosphonomethyl)phosphinate
   48    50     1     0     0
SMALL
USER_CHARGES

@<TRIPOS>ATOM
      1 PG          6.4598   -0.8367   -5.1896 P.3       1 ACP         1.6558
      2 O1G         6.1930   -0.8281   -3.7145 O.2       1 ACP        -0.9020
      3 O2G         6.9883   -2.2399   -5.7911 O.3       1 ACP        -0.8036
      4 O3G         7.5571    0.2328   -5.7014 O.3       1 ACP        -0.8036
      5 PB          3.4755   -1.4893   -6.1885 P.3       1 ACP         1.4945
      6 O1B         3.8620   -2.8895   -6.6052 O.co2     1 ACP        -0.8481
      7 O2B         2.4012   -0.7022   -6.9026 O.co2     1 ACP        -0.8481
      8 C3B         5.0158   -0.4657   -6.2107 C.3       1 ACP        -0.6636
      9 PA          2.1358   -2.2685   -3.6578 P.3       1 ACP         1.6023
     10 O1A         2.4845   -3.7405   -3.7033 O.co2     1 ACP        -0.8673
     11 O2A         0.7432   -1.7950   -4.0135 O.co2     1 ACP        -0.8673
     12 O3A         3.2094   -1.4534   -4.5800 O.3       1 ACP        -0.8150
     13 O5'         2.5238   -1.6632   -2.1888 O.3       1 ACP        -0.5522
     14 C5'         2.2816   -0.2918   -1.9206 C.3       1 ACP         0.2181
     15 C4'         2.7248    0.0226   -0.4980 C.3       1 ACP         0.0915
     16 O4'         2.4697    1.4219   -0.2462 O.3       1 ACP        -0.3675
     17 C3'         1.9404   -0.7419    0.5596 C.3       1 ACP         0.0748
     18 O3'         2.7418   -0.8086    1.7389 O.3       1 ACP        -0.5646
     19 C2'         0.7477    0.1630    0.7858 C.3       1 ACP         0.0804
     20 O2'         0.1373   -0.0577    2.0407 O.3       1 ACP        -0.5882
     21 C1'         1.3733    1.5427    0.6747 C.3       1 ACP         0.3809
     22 N9          0.4520    2.5240    0.1767 N.pl3     1 ACP        -0.4412
     23 C8         -1.0660    2.5608    0.3999 C.ar      1 ACP         0.1936
     24 N7         -1.5852    3.6333   -0.2221 N.2       1 ACP        -0.2746
     25 C5         -0.4682    4.1996   -0.7771 C.ar      1 ACP        -0.1386
     26 C6         -0.5216    5.4476   -1.5899 C.ar      1 ACP         0.4778
     27 N6         -1.6813    6.0510   -1.7982 N.pl3     1 ACP        -0.8290
     28 N1          0.6621    5.8575   -2.0523 N.pl3     1 ACP        -0.6985
     29 C2          1.8795    5.1301   -1.7717 C.ar      1 ACP         0.6179
     30 N3          1.9458    4.0434   -1.0670 N.ar      1 ACP        -0.5105
     31 C4          0.7388    3.6199   -0.5917 C.ar      1 ACP         0.2753
     32 HOG2        7.8274   -2.6168   -5.4507 H         1 ACP         0.4487
     33 HOG3        8.4710    0.1815   -5.3490 H         1 ACP         0.4487
     34 H3B1        4.6947    0.5544   -5.9717 H         1 ACP         0.1088
     35 H3B2        5.3547   -0.4579   -7.2530 H         1 ACP         0.1088
     36 H5'1        2.8430    0.3138   -2.6391 H         1 ACP         0.0327
     37 H5'2        1.2126   -0.0907   -2.0421 H         1 ACP         0.0327
     38 H4'         3.8046   -0.1390   -0.4011 H         1 ACP         0.1275
     39 H3'         1.6787   -1.7627    0.2719 H         1 ACP         0.0637
     40 HO3'        2.2231   -1.2979    2.3952 H         1 ACP         0.4127
     41 H2'         0.0002   -0.0084   -0.0014 H         1 ACP         0.0692
     42 HO2'       -0.1554   -0.9852    2.0577 H         1 ACP         0.4431
     43 H1'         1.7718    1.9211    1.6015 H         1 ACP         0.1199
     44 H8         -1.7235    1.8833    0.9537 H         1 ACP         0.2941
     45 HN61       -2.5296    5.6672   -1.4072 H         1 ACP         0.4754
     46 HN62       -1.7205    6.8969   -2.3483 H         1 ACP         0.4754
     47 H2          2.7750    5.5878   -2.2190 H         1 ACP         0.0886
     48 H48         0.6808    6.7046   -2.6128 H         1 ACP         0.4707
@<TRIPOS>BOND
     1    1    2 2
     2    1    3 1
     3    1    4 1
     4    1    8 1
     5    3   32 1
     6    4   33 1
     7    5    6 2
     8    5    7 1
     9    5    8 1
    10    5   12 1
    11    8   34 1
    12    8   35 1
    13    9   10 2
    14    9   11 1
    15    9   12 1
    16    9   13 1
    17   13   14 1
    18   14   15 1
    19   14   36 1
    20   14   37 1
    21   15   16 1
    22   15   17 1
    23   15   38 1
    24   16   21 1
    25   17   18 1
    26   17   19 1
    27   17   39 1
    28   18   40 1
    29   19   20 1
    30   19   21 1
    31   19   41 1
    32   20   42 1
    33   21   22 1
    34   21   43 1
    35   22   23 ar
    36   22   31 ar
    37   23   24 ar
    38   23   44 1
    39   24   25 ar
    40   25   26 ar
    41   25   31 ar
    42   26   27 1
    43   26   28 ar
    44   27   45 1
    45   27   46 1
    46   28   29 ar
    47   28   48 1
    48   29   30 ar
    49   29   47 1
    50   30   31 ar
@<TRIPOS>SUBSTRUCTURE
     1 ACP         1 GROUP 0 A     ****
@<TRIPOS>MOLECULE
[[5-(6-amino-1,8-dihydropurine-6,8-diylium-7-id-9-yl)-3,4-dihydroxy-tetrahydrofuran-2-yl]methoxy-oxido-phosphoryl]oxy-(phosphonomethyl)phosphinate
   48    50     1     0     0
SMALL
USER_CHARGES

@<TRIPOS>ATOM
      1 PG         -0.3556   -5.6365    7.0578 P.3       1 ACP         1.6558
      2 O1G         0.6348   -5.4728    5.9444 O.2       1 ACP        -0.9020
      3 O2G        -0.1499   -4.6496    8.3203 O.3       1 ACP        -0.8036
      4 O3G        -0.4074   -7.1051    7.7287 O.3       1 ACP        -0.8036
      5 PB         -2.9374   -6.3277    5.2728 P.3       1 ACP         1.4945
      6 O1B        -4.3439   -5.7865    5.1612 O.co2     1 ACP        -0.8481
      7 O2B        -2.6532   -7.7862    5.5472 O.co2     1 ACP        -0.8481
      8 C3B        -2.0727   -5.3425    6.5776 C.3       1 ACP        -0.6636
      9 PA         -2.2659   -6.0657    2.3941 P.3       1 ACP         1.6023
     10 O1A        -3.5371   -5.3651    1.9652 O.co2     1 ACP        -0.8673
     11 O2A        -2.0598   -7.5360    2.1012 O.co2     1 ACP        -0.8673
     12 O3A        -2.0569   -5.8242    3.9959 O.3       1 ACP        -0.8150
     13 O5'        -0.9728   -5.2428    1.8236 O.3       1 ACP        -0.5522
     14 C5'        -0.7840   -3.8935    2.2172 C.3       1 ACP         0.2181
     15 C4'        -0.0724   -3.1466    1.1027 C.3       1 ACP         0.0915
     16 O4'        -0.8674   -3.1929   -0.0945 O.3       1 ACP        -0.3675
     17 C3'         0.1338   -1.6715    1.4027 C.3       1 ACP         0.0748
     18 O3'         1.2893   -1.4445    2.1808 O.3       1 ACP        -0.5646
     19 C2'         0.2158   -1.0724    0.0128 C.3       1 ACP         0.0804
     20 O2'         1.5141   -1.2448   -0.5513 O.3       1 ACP        -0.5882
     21 C1'        -0.7897   -1.9176   -0.7583 C.3       1 ACP         0.3809
     22 N9         -2.1040   -1.3333   -0.7704 N.pl3     1 ACP        -0.4412
     23 C8         -3.2124   -1.5345    0.2719 C.ar      1 ACP         0.1936
     24 N7         -4.2964   -0.8234   -0.0828 N.2       1 ACP        -0.2746
     25 C5         -3.8754   -0.2386   -1.2478 C.ar      1 ACP        -0.1386
     26 C6         -4.7432    0.6719   -2.0470 C.ar      1 ACP         0.4778
     27 N6         -5.9725    0.9415   -1.6366 N.pl3     1 ACP        -0.8290
     28 N1         -4.1703    1.1517   -3.1536 N.pl3     1 ACP        -0.6985
     29 C2         -2.8174    0.7994   -3.5215 C.ar      1 ACP         0.6179
     30 N3         -2.0475    0.0097   -2.8393 N.ar      1 ACP        -0.5105
     31 C4         -2.6278   -0.4836   -1.7071 C.ar      1 ACP         0.2753
     32 HOG2        0.6941   -4.6855    8.8188 H         1 ACP         0.4487
     33 HOG3        0.4027   -7.4643    8.1491 H         1 ACP         0.4487
     34 H3B1       -2.6897   -5.4410    7.4779 H         1 ACP         0.1088
     35 H3B2       -2.1405   -4.2967    6.2569 H         1 ACP         0.1088
     36 H5'1       -1.7614   -3.4428    2.4166 H         1 ACP         0.0327
     37 H5'2       -0.1870   -3.8724    3.1344 H         1 ACP         0.0327
     38 H4'         0.8883   -3.6447    0.8783 H         1 ACP         0.1275
     39 H3'        -0.7368   -1.2359    1.9871 H         1 ACP         0.0637
     40 HO3'        1.3407   -0.4871    2.3218 H         1 ACP         0.4127
     41 H2'        -0.0343   -0.0280    0.0196 H         1 ACP         0.0692
     42 HO2'        2.1443   -0.7955    0.0378 H         1 ACP         0.4431
     43 H1'        -0.5175   -2.1046   -1.7826 H         1 ACP         0.1199
     44 H8         -3.2310   -2.1319    1.1889 H         1 ACP         0.2941
     45 HN61       -6.3230    0.5316   -0.7829 H         1 ACP         0.4754
     46 HN62       -6.5628    1.5584   -2.1760 H         1 ACP         0.4754
     47 H2         -2.4822    1.2710   -4.4579 H         1 ACP         0.0886
     48 H48        -4.7200    1.7780   -3.7346 H         1 ACP         0.4707
@<TRIPOS>BOND
     1    1    2 2
     2    1    3 1
     3    1    4 1
     4    1    8 1
     5    3   32 1
     6    4   33 1
     7    5    6 2
     8    5    7 1
     9    5    8 1
    10    5   12 1
    11    8   34 1
    12    8   35 1
    13    9   10 2
    14    9   11 1
    15    9   12 1
    16    9   13 1
    17   13   14 1
    18   14   15 1
    19   14   36 1
    20   14   37 1
    21   15   16 1
    22   15   17 1
    23   15   38 1
    24   16   21 1
    25   17   18 1
    26   17   19 1
    27   17   39 1
    28   18   40 1
    29   19   20 1
    30   19   21 1
    31   19   41 1
    32   20   42 1
    33   21   22 1
    34   21   43 1
    35   22   23 ar
    36   22   31 ar
    37   23   24 ar
    38   23   44 1
    39   24   25 ar
    40   25   26 ar
    41   25   31 ar
    42   26   27 1
    43   26   28 ar
    44   27   45 1
    45   27   46 1
    46   28   29 ar
    47   28   48 1
    48   29   30 ar
    49   29   47 1
    50   30   31 ar
@<TRIPOS>SUBSTRUCTURE
     1 ACP         1 GROUP 0 A     ****
@<TRIPOS>MOLECULE
[[5-(6-amino-1,8-dihydropurine-6,8-diylium-7-id-9-yl)-3,4-dihydroxy-tetrahydrofuran-2-yl]methoxy-oxido-phosphoryl]oxy-(phosphonomethyl)phosphinate
   48    50     1     0     0
SMALL
USER_CHARGES

@<TRIPOS>ATOM
      1 PG         -0.3913    1.4049   -4.8497 P.3       1 ACP         1.6558
      2 O1G         1.0448    1.8128   -4.7136 O.2       1 ACP        -0.9020
      3 O2G        -1.2403    2.2140   -5.9610 O.3       1 ACP        -0.8036
      4 O3G        -1.2830    1.5510   -3.5106 O.3       1 ACP        -0.8036
      5 PB         -0.0254   -1.7404   -4.2995 P.3       1 ACP         1.4945
      6 O1B        -0.4183   -3.0107   -5.0176 O.co2     1 ACP        -0.8481
      7 O2B        -0.4217   -1.4674   -2.8671 O.co2     1 ACP        -0.8481
      8 C3B        -0.6344   -0.3230   -5.3197 C.3       1 ACP        -0.6636
      9 PA          2.8590   -2.1285   -3.7205 P.3       1 ACP         1.6023
     10 O1A         4.1100   -1.4231   -4.1979 O.co2     1 ACP        -0.8673
     11 O2A         2.7489   -3.6360   -3.7934 O.co2     1 ACP        -0.8673
     12 O3A         1.5729   -1.4791   -4.4897 O.3       1 ACP        -0.8150
     13 O5'         2.5238   -1.6632   -2.1888 O.3       1 ACP        -0.5522
     14 C5'         2.2816   -0.2918   -1.9206 C.3       1 ACP         0.2181
     15 C4'         2.7248    0.0226   -0.4980 C.3       1 ACP         0.0915
     16 O4'         2.4697    1.4219   -0.2462 O.3       1 ACP        -0.3675
     17 C3'         1.9404   -0.7419    0.5596 C.3       1 ACP         0.0748
     18 O3'         2.7418   -0.8086    1.7389 O.3       1 ACP        -0.5646
     19 C2'         0.7477    0.1630    0.7858 C.3       1 ACP         0.0804
     20 O2'         0.1373   -0.0577    2.0407 O.3       1 ACP        -0.5882
     21 C1'         1.3733    1.5427    0.6747 C.3       1 ACP         0.3809
     22 N9          0.4520    2.5240    0.1767 N.pl3     1 ACP        -0.4412
     23 C8          0.5793    3.3338   -1.1209 C.ar      1 ACP         0.1936
     24 N7         -0.4807    4.1508   -1.2458 N.2       1 ACP        -0.2746
     25 C5         -1.1921    3.8572   -0.1126 C.ar      1 ACP        -0.1386
     26 C6         -2.4855    4.5203    0.2163 C.ar      1 ACP         0.4778
     27 N6         -2.9873    5.4319   -0.6020 N.pl3     1 ACP        -0.8290
     28 N1         -3.0414    4.1119    1.3596 N.pl3     1 ACP        -0.6985
     29 C2         -2.4169    3.1071    2.1904 C.ar      1 ACP         0.6179
     30 N3         -1.2928    2.5191    1.9210 N.ar      1 ACP        -0.5105
     31 C4         -0.7202    2.9326    0.7534 C.ar      1 ACP         0.2753
     32 HOG2       -1.3334    3.1864   -5.8725 H         1 ACP         0.4487
     33 HOG3       -1.3815    2.4360   -3.0995 H         1 ACP         0.4487
     34 H3B1       -1.7117   -0.4859   -5.4363 H         1 ACP         0.1088
     35 H3B2       -0.1829   -0.4515   -6.3101 H         1 ACP         0.1088
     36 H5'1        2.8430    0.3138   -2.6391 H         1 ACP         0.0327
     37 H5'2        1.2126   -0.0907   -2.0421 H         1 ACP         0.0327
     38 H4'         3.8046   -0.1390   -0.4011 H         1 ACP         0.1275
     39 H3'         1.6787   -1.7627    0.2719 H         1 ACP         0.0637
     40 HO3'        3.5553   -1.2733    1.4913 H         1 ACP         0.4127
     41 H2'         0.0002   -0.0084   -0.0014 H         1 ACP         0.0692
     42 HO2'        0.8091    0.1203    2.7213 H         1 ACP         0.4431
     43 H1'         1.7718    1.9211    1.6015 H         1 ACP         0.1199
     44 H8          1.3565    3.3309   -1.8916 H         1 ACP         0.2941
     45 HN61       -3.8634    5.8832   -0.3817 H         1 ACP         0.4754
     46 HN62       -2.4948    5.6788   -1.4484 H         1 ACP         0.4754
     47 H2         -2.9911    2.8734    3.1000 H         1 ACP         0.0886
     48 H48        -3.9253    4.5332    1.6302 H         1 ACP         0.4707
@<TRIPOS>BOND
     1    1    2 2
     2    1    3 1
     3    1    4 1
     4    1    8 1
     5    3   32 1
     6    4   33 1
     7    5    6 2
     8    5    7 1
     9    5    8 1
    10    5   12 1
    11    8   34 1
    12    8   35 1
    13    9   10 2
    14    9   11 1
    15    9   12 1
    16    9   13 1
    17   13   14 1
    18   14   15 1
    19   14   36 1
    20   14   37 1
    21   15   16 1
    22   15   17 1
    23   15   38 1
    24   16   21 1
    25   17   18 1
    26   17   19 1
    27   17   39 1
    28   18   40 1
    29   19   20 1
    30   19   21 1
    31   19   41 1
    32   20   42 1
    33   21   22 1
    34   21   43 1
    35   22   23 ar
    36   22   31 ar
    37   23   24 ar
    38   23   44 1
    39   24   25 ar
    40   25   26 ar
    41   25   31 ar
    42   26   27 1
    43   26   28 ar
    44   27   45 1
    45   27   46 1
    46   28   29 ar
    47   28   48 1
    48   29   30 ar
    49   29   47 1
    50   30   31 ar
@<TRIPOS>SUBSTRUCTURE
     1 ACP         1 GROUP 0 A     ****
@<TRIPOS>MOLECULE
[[5-(6-amino-1,8-dihydropurine-6,8-diylium-7-id-9-yl)-3,4-dihydroxy-tetrahydrofuran-2-yl]methoxy-oxido-phosphoryl]oxy-(phosphonomethyl)phosphinate
   48    50     1     0     0
SMALL
USER_CHARGES

@<TRIPOS>ATOM
      1 PG          0.0245   -1.3190   -6.7255 P.3       1 ACP         1.6558
      2 O1G        -0.1635   -2.0098   -5.4084 O.2       1 ACP        -0.9020
      3 O2G        -1.2766   -0.5518   -7.2987 O.3       1 ACP        -0.8036
      4 O3G         0.4730   -2.2724   -7.9501 O.3       1 ACP        -0.8036
      5 PB          3.0668   -0.3689   -6.3112 P.3       1 ACP         1.4945
      6 O1B         3.8064    0.9450   -6.4125 O.co2     1 ACP        -0.8481
      7 O2B         3.4846   -1.5927   -7.0929 O.co2     1 ACP        -0.8481
      8 C3B         1.2942   -0.0332   -6.7185 C.3       1 ACP        -0.6636
      9 PA          3.8920   -1.4334   -3.6669 P.3       1 ACP         1.6023
     10 O1A         5.0273   -0.4642   -3.4175 O.co2     1 ACP        -0.8673
     11 O2A         4.1740   -2.8552   -4.1017 O.co2     1 ACP        -0.8673
     12 O3A         2.8627   -0.7596   -4.7412 O.3       1 ACP        -0.8150
     13 O5'         2.9203   -1.4822   -2.3523 O.3       1 ACP        -0.5522
     14 C5'         2.2816   -0.2918   -1.9206 C.3       1 ACP         0.2181
     15 C4'         2.7248    0.0226   -0.4980 C.3       1 ACP         0.0915
     16 O4'         2.4697    1.4219   -0.2462 O.3       1 ACP        -0.3675
     17 C3'         1.9404   -0.7419    0.5596 C.3       1 ACP         0.0748
     18 O3'         2.7418   -0.8086    1.7389 O.3       1 ACP        -0.5646
     19 C2'         0.7477    0.1630    0.7858 C.3       1 ACP         0.0804
     20 O2'         0.1373   -0.0577    2.0407 O.3       1 ACP        -0.5882
     21 C1'         1.3733    1.5427    0.6747 C.3       1 ACP         0.3809
     22 N9          0.4520    2.5240    0.1767 N.pl3     1 ACP        -0.4412
     23 C8          0.1798    2.8712   -1.2933 C.ar      1 ACP         0.1936
     24 N7         -0.7494    3.8400   -1.3610 N.2       1 ACP        -0.2746
     25 C5         -1.0173    4.0603   -0.0358 C.ar      1 ACP        -0.1386
     26 C6         -2.0105    5.0717    0.4241 C.ar      1 ACP         0.4778
     27 N6         -2.6723    5.7982   -0.4628 N.pl3     1 ACP        -0.8290
     28 N1         -2.1445    5.1522    1.7502 N.pl3     1 ACP        -0.6985
     29 C2         -1.3755    4.3143    2.6426 C.ar      1 ACP         0.6179
     30 N3         -0.5075    3.4292    2.2616 N.ar      1 ACP        -0.5105
     31 C4         -0.3667    3.3425    0.9070 C.ar      1 ACP         0.2753
     32 HOG2       -2.0920   -1.0671   -7.4767 H         1 ACP         0.4487
     33 HOG3       -0.1119   -3.0143   -8.2136 H         1 ACP         0.4487
     34 H3B1        1.3030    0.4286   -7.7123 H         1 ACP         0.1088
     35 H3B2        0.9655    0.7369   -6.0114 H         1 ACP         0.1088
     36 H5'1        2.5581    0.5234   -2.5967 H         1 ACP         0.0327
     37 H5'2        1.1975   -0.4371   -1.9608 H         1 ACP         0.0327
     38 H4'         3.8046   -0.1390   -0.4011 H         1 ACP         0.1275
     39 H3'         1.6787   -1.7627    0.2719 H         1 ACP         0.0637
     40 HO3'        3.5553   -1.2733    1.4913 H         1 ACP         0.4127
     41 H2'         0.0002   -0.0084   -0.0014 H         1 ACP         0.0692
     42 HO2'       -0.1554   -0.9852    2.0577 H         1 ACP         0.4431
     43 H1'         1.7718    1.9211    1.6015 H         1 ACP         0.1199
     44 H8          0.6089    2.4651   -2.2147 H         1 ACP         0.2941
     45 HN61       -2.5055    5.6680   -1.4503 H         1 ACP         0.4754
     46 HN62       -3.3462    6.4841   -0.1542 H         1 ACP         0.4754
     47 H2         -1.5932    4.4937    3.7066 H         1 ACP         0.0886
     48 H48        -2.8098    5.8270    2.1160 H         1 ACP         0.4707
@<TRIPOS>BOND
     1    1    2 2
     2    1    3 1
     3    1    4 1
     4    1    8 1
     5    3   32 1
     6    4   33 1
     7    5    6 2
     8    5    7 1
     9    5    8 1
    10    5   12 1
    11    8   34 1
    12    8   35 1
    13    9   10 2
    14    9   11 1
    15    9   12 1
    16    9   13 1
    17   13   14 1
    18   14   15 1
    19   14   36 1
    20   14   37 1
    21   15   16 1
    22   15   17 1
    23   15   38 1
    24   16   21 1
    25   17   18 1
    26   17   19 1
    27   17   39 1
    28   18   40 1
    29   19   20 1
    30   19   21 1
    31   19   41 1
    32   20   42 1
    33   21   22 1
    34   21   43 1
    35   22   23 ar
    36   22   31 ar
    37   23   24 ar
    38   23   44 1
    39   24   25 ar
    40   25   26 ar
    41   25   31 ar
    42   26   27 1
    43   26   28 ar
    44   27   45 1
    45   27   46 1
    46   28   29 ar
    47   28   48 1
    48   29   30 ar
    49   29   47 1
    50   30   31 ar
@<TRIPOS>SUBSTRUCTURE
     1 ACP         1 GROUP 0 A     ****
@<TRIPOS>MOLECULE
[[5-(6-amino-1,8-dihydropurine-6,8-diylium-7-id-9-yl)-3,4-dihydroxy-tetrahydrofuran-2-yl]methoxy-oxido-phosphoryl]oxy-(phosphonomethyl)phosphinate
   48    50     1     0     0
SMALL
USER_CHARGES

@<TRIPOS>ATOM
      1 PG          6.0622    0.1872   -5.2782 P.3       1 ACP         1.6558
      2 O1G         7.0899   -0.8873   -5.4697 O.2       1 ACP        -0.9020
      3 O2G         6.5529    1.6867   -5.6258 O.3       1 ACP        -0.8036
      4 O3G         5.4687    0.3195   -3.7816 O.3       1 ACP        -0.8036
      5 PB          3.4755   -1.4893   -6.1885 P.3       1 ACP         1.4945
      6 O1B         4.3129   -2.6986   -6.5349 O.co2     1 ACP        -0.8481
      7 O2B         2.2001   -1.1526   -6.9258 O.co2     1 ACP        -0.8481
      8 C3B         4.5799   -0.0094   -6.2930 C.3       1 ACP        -0.6636
      9 PA          2.1358   -2.2685   -3.6578 P.3       1 ACP         1.6023
     10 O1A         2.4845   -3.7405   -3.7033 O.co2     1 ACP        -0.8673
     11 O2A         0.7432   -1.7950   -4.0135 O.co2     1 ACP        -0.8673
     12 O3A         3.2094   -1.4534   -4.5800 O.3       1 ACP        -0.8150
     13 O5'         2.5238   -1.6632   -2.1888 O.3       1 ACP        -0.5522
     14 C5'         2.2816   -0.2918   -1.9206 C.3       1 ACP         0.2181
     15 C4'         2.7248    0.0226   -0.4980 C.3       1 ACP         0.0915
     16 O4'         2.4697    1.4219   -0.2462 O.3       1 ACP        -0.3675
     17 C3'         1.9404   -0.7419    0.5596 C.3       1 ACP         0.0748
     18 O3'         2.7418   -0.8086    1.7389 O.3       1 ACP        -0.5646
     19 C2'         0.7477    0.1630    0.7858 C.3       1 ACP         0.0804
     20 O2'         0.1373   -0.0577    2.0407 O.3       1 ACP        -0.5882
     21 C1'         1.3733    1.5427    0.6747 C.3       1 ACP         0.3809
     22 N9          0.4520    2.5240    0.1767 N.pl3     1 ACP        -0.4412
     23 C8         -1.0660    2.5608    0.3999 C.ar      1 ACP         0.1936
     24 N7         -1.5852    3.6333   -0.2221 N.2       1 ACP        -0.2746
     25 C5         -0.4682    4.1996   -0.7771 C.ar      1 ACP        -0.1386
     26 C6         -0.5216    5.4476   -1.5899 C.ar      1 ACP         0.4778
     27 N6         -1.6813    6.0510   -1.7982 N.pl3     1 ACP        -0.8290
     28 N1          0.6621    5.8575   -2.0523 N.pl3     1 ACP        -0.6985
     29 C2          1.8795    5.1301   -1.7717 C.ar      1 ACP         0.6179
     30 N3          1.9458    4.0434   -1.0670 N.ar      1 ACP        -0.5105
     31 C4          0.7388    3.6199   -0.5917 C.ar      1 ACP         0.2753
     32 HOG2        7.3094    2.0659   -5.1298 H         1 ACP         0.4487
     33 HOG3        6.0824    0.5185   -3.0429 H         1 ACP         0.4487
     34 H3B1        3.9327    0.8546   -6.1045 H         1 ACP         0.1088
     35 H3B2        4.8985    0.0527   -7.3398 H         1 ACP         0.1088
     36 H5'1        2.8430    0.3138   -2.6391 H         1 ACP         0.0327
     37 H5'2        1.2126   -0.0907   -2.0421 H         1 ACP         0.0327
     38 H4'         3.8046   -0.1390   -0.4011 H         1 ACP         0.1275
     39 H3'         1.6787   -1.7627    0.2719 H         1 ACP         0.0637
     40 HO3'        2.2231   -1.2979    2.3952 H         1 ACP         0.4127
     41 H2'         0.0002   -0.0084   -0.0014 H         1 ACP         0.0692
     42 HO2'       -0.1554   -0.9852    2.0577 H         1 ACP         0.4431
     43 H1'         1.7718    1.9211    1.6015 H         1 ACP         0.1199
     44 H8         -1.7235    1.8833    0.9537 H         1 ACP         0.2941
     45 HN61       -2.5296    5.6672   -1.4072 H         1 ACP         0.4754
     46 HN62       -1.7205    6.8969   -2.3483 H         1 ACP         0.4754
     47 H2          2.7750    5.5878   -2.2190 H         1 ACP         0.0886
     48 H48         0.6808    6.7046   -2.6128 H         1 ACP         0.4707
@<TRIPOS>BOND
     1    1    2 2
     2    1    3 1
     3    1    4 1
     4    1    8 1
     5    3   32 1
     6    4   33 1
     7    5    6 2
     8    5    7 1
     9    5    8 1
    10    5   12 1
    11    8   34 1
    12    8   35 1
    13    9   10 2
    14    9   11 1
    15    9   12 1
    16    9   13 1
    17   13   14 1
    18   14   15 1
    19   14   36 1
    20   14   37 1
    21   15   16 1
    22   15   17 1
    23   15   38 1
    24   16   21 1
    25   17   18 1
    26   17   19 1
    27   17   39 1
    28   18   40 1
    29   19   20 1
    30   19   21 1
    31   19   41 1
    32   20   42 1
    33   21   22 1
    34   21   43 1
    35   22   23 ar
    36   22   31 ar
    37   23   24 ar
    38   23   44 1
    39   24   25 ar
    40   25   26 ar
    41   25   31 ar
    42   26   27 1
    43   26   28 ar
    44   27   45 1
    45   27   46 1
    46   28   29 ar
    47   28   48 1
    48   29   30 ar
    49   29   47 1
    50   30   31 ar
@<TRIPOS>SUBSTRUCTURE
     1 ACP         1 GROUP 0 A     ****
@<TRIPOS>MOLECULE
[[5-(6-amino-1,8-dihydropurine-6,8-diylium-7-id-9-yl)-3,4-dihydroxy-tetrahydrofuran-2-yl]methoxy-oxido-phosphoryl]oxy-(phosphonomethyl)phosphinate
   48    50     1     0     0
SMALL
USER_CHARGES

@<TRIPOS>ATOM
      1 PG          1.4805   -8.6317    3.1455 P.3       1 ACP         1.6558
      2 O1G         1.8259   -7.3485    2.4516 O.2       1 ACP        -0.9020
      3 O2G         2.3857   -8.9887    4.4352 O.3       1 ACP        -0.8036
      4 O3G         1.5790   -9.9611    2.2330 O.3       1 ACP        -0.8036
      5 PB         -0.8530   -7.5067    5.0480 P.3       1 ACP         1.4945
      6 O1B         0.0110   -7.6417    6.2804 O.co2     1 ACP        -0.8481
      7 O2B        -2.3546   -7.6704    5.0930 O.co2     1 ACP        -0.8481
      8 C3B        -0.2059   -8.6996    3.7913 C.3       1 ACP        -0.6636
      9 PA         -0.5283   -4.5720    4.7510 P.3       1 ACP         1.6023
     10 O1A         0.4835   -4.3793    5.8599 O.co2     1 ACP        -0.8673
     11 O2A        -1.9777   -4.1878    4.9548 O.co2     1 ACP        -0.8673
     12 O3A        -0.4709   -6.1295    4.2627 O.3       1 ACP        -0.8150
     13 O5'         0.0100   -3.8402    3.3910 O.3       1 ACP        -0.5522
     14 C5'        -0.7840   -3.8935    2.2172 C.3       1 ACP         0.2181
     15 C4'        -0.0724   -3.1466    1.1027 C.3       1 ACP         0.0915
     16 O4'        -0.8674   -3.1929   -0.0945 O.3       1 ACP        -0.3675
     17 C3'         0.1338   -1.6715    1.4027 C.3       1 ACP         0.0748
     18 O3'         1.2893   -1.4445    2.1808 O.3       1 ACP        -0.5646
     19 C2'         0.2158   -1.0724    0.0128 C.3       1 ACP         0.0804
     20 O2'         1.5141   -1.2448   -0.5513 O.3       1 ACP        -0.5882
     21 C1'        -0.7897   -1.9176   -0.7583 C.3       1 ACP         0.3809
     22 N9         -2.1040   -1.3333   -0.7704 N.pl3     1 ACP        -0.4412
     23 C8         -3.2124   -1.5345    0.2719 C.ar      1 ACP         0.1936
     24 N7         -4.2964   -0.8234   -0.0828 N.2       1 ACP        -0.2746
     25 C5         -3.8754   -0.2386   -1.2478 C.ar      1 ACP        -0.1386
     26 C6         -4.7432    0.6719   -2.0470 C.ar      1 ACP         0.4778
     27 N6         -5.9725    0.9415   -1.6366 N.pl3     1 ACP        -0.8290
     28 N1         -4.1703    1.1517   -3.1536 N.pl3     1 ACP        -0.6985
     29 C2         -2.8174    0.7994   -3.5215 C.ar      1 ACP         0.6179
     30 N3         -2.0475    0.0097   -2.8393 N.ar      1 ACP        -0.5105
     31 C4         -2.6278   -0.4836   -1.7071 C.ar      1 ACP         0.2753
     32 HOG2        3.3538   -9.0969    4.3209 H         1 ACP         0.4487
     33 HOG3        2.4408  -10.1971    1.8287 H         1 ACP         0.4487
     34 H3B1       -0.8901   -8.6283    2.9383 H         1 ACP         0.1088
     35 H3B2       -0.3415   -9.6960    4.2271 H         1 ACP         0.1088
     36 H5'1       -0.9357   -4.9414    1.9397 H         1 ACP         0.0327
     37 H5'2       -1.7557   -3.4349    2.4259 H         1 ACP         0.0327
     38 H4'         0.8883   -3.6447    0.8783 H         1 ACP         0.1275
     39 H3'        -0.7368   -1.2359    1.9871 H         1 ACP         0.0637
     40 HO3'        1.3407   -0.4871    2.3218 H         1 ACP         0.4127
     41 H2'        -0.0343   -0.0280    0.0196 H         1 ACP         0.0692
     42 HO2'        2.1443   -0.7955    0.0378 H         1 ACP         0.4431
     43 H1'        -0.5175   -2.1046   -1.7826 H         1 ACP         0.1199
     44 H8         -3.2310   -2.1319    1.1889 H         1 ACP         0.2941
     45 HN61       -6.3230    0.5316   -0.7829 H         1 ACP         0.4754
     46 HN62       -6.5628    1.5584   -2.1760 H         1 ACP         0.4754
     47 H2         -2.4822    1.2710   -4.4579 H         1 ACP         0.0886
     48 H48        -4.7200    1.7780   -3.7346 H         1 ACP         0.4707
@<TRIPOS>BOND
     1    1    2 2
     2    1    3 1
     3    1    4 1
     4    1    8 1
     5    3   32 1
     6    4   33 1
     7    5    6 2
     8    5    7 1
     9    5    8 1
    10    5   12 1
    11    8   34 1
    12    8   35 1
    13    9   10 2
    14    9   11 1
    15    9   12 1
    16    9   13 1
    17   13   14 1
    18   14   15 1
    19   14   36 1
    20   14   37 1
    21   15   16 1
    22   15   17 1
    23   15   38 1
    24   16   21 1
    25   17   18 1
    26   17   19 1
    27   17   39 1
    28   18   40 1
    29   19   20 1
    30   19   21 1
    31   19   41 1
    32   20   42 1
    33   21   22 1
    34   21   43 1
    35   22   23 ar
    36   22   31 ar
    37   23   24 ar
    38   23   44 1
    39   24   25 ar
    40   25   26 ar
    41   25   31 ar
    42   26   27 1
    43   26   28 ar
    44   27   45 1
    45   27   46 1
    46   28   29 ar
    47   28   48 1
    48   29   30 ar
    49   29   47 1
    50   30   31 ar
@<TRIPOS>SUBSTRUCTURE
     1 ACP         1 GROUP 0 A     ****
@<TRIPOS>MOLECULE
[[5-(6-amino-1,8-dihydropurine-6,8-diylium-7-id-9-yl)-3,4-dihydroxy-tetrahydrofuran-2-yl]methoxy-oxido-phosphoryl]oxy-(phosphonomethyl)phosphinate
   48    50     1     0     0
SMALL
USER_CHARGES

@<TRIPOS>ATOM
      1 PG         -0.4914   -2.9728   -3.8509 P.3       1 ACP         1.6558
      2 O1G        -0.8734   -1.6090   -3.3598 O.2       1 ACP        -0.9020
      3 O2G        -1.6962   -3.8468   -4.4793 O.3       1 ACP        -0.8036
      4 O3G         0.1503   -3.9546   -2.7401 O.3       1 ACP        -0.8036
      5 PB          2.4407   -2.2547   -4.9541 P.3       1 ACP         1.4945
      6 O1B         3.1738   -2.4437   -6.2620 O.co2     1 ACP        -0.8481
      7 O2B         2.9866   -2.7672   -3.6415 O.co2     1 ACP        -0.8481
      8 C3B         0.7489   -2.9717   -5.1652 C.3       1 ACP        -0.6636
      9 PA          2.8587    0.6155   -4.3269 P.3       1 ACP         1.6023
     10 O1A         1.9171    1.7961   -4.2263 O.co2     1 ACP        -0.8673
     11 O2A         4.1093    0.6971   -5.1750 O.co2     1 ACP        -0.8673
     12 O3A         2.0007   -0.6924   -4.7968 O.3       1 ACP        -0.8150
     13 O5'         3.2885    0.1337   -2.8242 O.3       1 ACP        -0.5522
     14 C5'         2.2816   -0.2918   -1.9206 C.3       1 ACP         0.2181
     15 C4'         2.7248    0.0226   -0.4980 C.3       1 ACP         0.0915
     16 O4'         2.4697    1.4219   -0.2462 O.3       1 ACP        -0.3675
     17 C3'         1.9404   -0.7419    0.5596 C.3       1 ACP         0.0748
     18 O3'         2.7418   -0.8086    1.7389 O.3       1 ACP        -0.5646
     19 C2'         0.7477    0.1630    0.7858 C.3       1 ACP         0.0804
     20 O2'         0.1373   -0.0577    2.0407 O.3       1 ACP        -0.5882
     21 C1'         1.3733    1.5427    0.6747 C.3       1 ACP         0.3809
     22 N9          0.4520    2.5240    0.1767 N.pl3     1 ACP        -0.4412
     23 C8          0.1798    2.8712   -1.2933 C.ar      1 ACP         0.1936
     24 N7         -0.7494    3.8400   -1.3610 N.2       1 ACP        -0.2746
     25 C5         -1.0173    4.0603   -0.0358 C.ar      1 ACP        -0.1386
     26 C6         -2.0105    5.0717    0.4241 C.ar      1 ACP         0.4778
     27 N6         -2.6723    5.7982   -0.4628 N.pl3     1 ACP        -0.8290
     28 N1         -2.1445    5.1522    1.7502 N.pl3     1 ACP        -0.6985
     29 C2         -1.3755    4.3143    2.6426 C.ar      1 ACP         0.6179
     30 N3         -0.5075    3.4292    2.2616 N.ar      1 ACP        -0.5105
     31 C4         -0.3667    3.3425    0.9070 C.ar      1 ACP         0.2753
     32 HOG2       -2.4690   -4.0646   -3.9160 H         1 ACP         0.4487
     33 HOG3       -0.3794   -4.1864   -1.9478 H         1 ACP         0.4487
     34 H3B1        0.9064   -4.0117   -5.4726 H         1 ACP         0.1088
     35 H3B2        0.3072   -2.4490   -6.0212 H         1 ACP         0.1088
     36 H5'1        1.3501    0.2325   -2.1561 H         1 ACP         0.0327
     37 H5'2        2.1268   -1.3683   -2.0445 H         1 ACP         0.0327
     38 H4'         3.8046   -0.1390   -0.4011 H         1 ACP         0.1275
     39 H3'         1.6787   -1.7627    0.2719 H         1 ACP         0.0637
     40 HO3'        2.2231   -1.2979    2.3952 H         1 ACP         0.4127
     41 H2'         0.0002   -0.0084   -0.0014 H         1 ACP         0.0692
     42 HO2'       -0.6132    0.5577    2.1063 H         1 ACP         0.4431
     43 H1'         1.7718    1.9211    1.6015 H         1 ACP         0.1199
     44 H8          0.6089    2.4651   -2.2147 H         1 ACP         0.2941
     45 HN61       -3.3458    6.4845   -0.1543 H         1 ACP         0.4754
     46 HN62       -2.5050    5.6683   -1.4502 H         1 ACP         0.4754
     47 H2         -1.5932    4.4937    3.7066 H         1 ACP         0.0886
     48 H48        -2.8098    5.8270    2.1160 H         1 ACP         0.4707
@<TRIPOS>BOND
     1    1    2 2
     2    1    3 1
     3    1    4 1
     4    1    8 1
     5    3   32 1
     6    4   33 1
     7    5    6 2
     8    5    7 1
     9    5    8 1
    10    5   12 1
    11    8   34 1
    12    8   35 1
    13    9   10 2
    14    9   11 1
    15    9   12 1
    16    9   13 1
    17   13   14 1
    18   14   15 1
    19   14   36 1
    20   14   37 1
    21   15   16 1
    22   15   17 1
    23   15   38 1
    24   16   21 1
    25   17   18 1
    26   17   19 1
    27   17   39 1
    28   18   40 1
    29   19   20 1
    30   19   21 1
    31   19   41 1
    32   20   42 1
    33   21   22 1
    34   21   43 1
    35   22   23 ar
    36   22   31 ar
    37   23   24 ar
    38   23   44 1
    39   24   25 ar
    40   25   26 ar
    41   25   31 ar
    42   26   27 1
    43   26   28 ar
    44   27   45 1
    45   27   46 1
    46   28   29 ar
    47   28   48 1
    48   29   30 ar
    49   29   47 1
    50   30   31 ar
@<TRIPOS>SUBSTRUCTURE
     1 ACP         1 GROUP 0 A     ****
@<TRIPOS>MOLECULE
[[5-(6-amino-1,8-dihydropurine-6,8-diylium-7-id-9-yl)-3,4-dihydroxy-tetrahydrofuran-2-yl]methoxy-oxido-phosphoryl]oxy-(phosphonomethyl)phosphinate
   48    50     1     0     0
SMALL
USER_CHARGES

@<TRIPOS>ATOM
      1 PG          2.1033   -2.5149   -7.9045 P.3       1 ACP         1.6558
      2 O1G         1.5197   -3.7331   -8.5546 O.2       1 ACP        -0.9020
      3 O2G         2.4134   -1.2792   -8.8981 O.3       1 ACP        -0.8036
      4 O3G         3.5052   -2.7444   -7.1354 O.3       1 ACP        -0.8036
      5 PB          1.5391   -0.2631   -5.6817 P.3       1 ACP         1.4945
      6 O1B         0.4108    0.0444   -4.7247 O.co2     1 ACP        -0.8481
      7 O2B         2.0532    0.7518   -6.6763 O.co2     1 ACP        -0.8481
      8 C3B         1.0538   -1.7721   -6.6347 C.3       1 ACP        -0.6636
      9 PA          3.9531   -0.2088   -3.9567 P.3       1 ACP         1.6023
     10 O1A         4.6365    0.8495   -4.7954 O.co2     1 ACP        -0.8673
     11 O2A         4.7595   -1.2976   -3.2826 O.co2     1 ACP        -0.8673
     12 O3A         2.7887   -0.9130   -4.8599 O.3       1 ACP        -0.8150
     13 O5'         3.0199    0.5139   -2.8245 O.3       1 ACP        -0.5522
     14 C5'         2.2816   -0.2918   -1.9206 C.3       1 ACP         0.2181
     15 C4'         2.7248    0.0226   -0.4980 C.3       1 ACP         0.0915
     16 O4'         2.4697    1.4219   -0.2462 O.3       1 ACP        -0.3675
     17 C3'         1.9404   -0.7419    0.5596 C.3       1 ACP         0.0748
     18 O3'         2.7418   -0.8086    1.7389 O.3       1 ACP        -0.5646
     19 C2'         0.7477    0.1630    0.7858 C.3       1 ACP         0.0804
     20 O2'         0.1373   -0.0577    2.0407 O.3       1 ACP        -0.5882
     21 C1'         1.3733    1.5427    0.6747 C.3       1 ACP         0.3809
     22 N9          0.4520    2.5240    0.1767 N.pl3     1 ACP        -0.4412
     23 C8          0.5793    3.3338   -1.1209 C.ar      1 ACP         0.1936
     24 N7         -0.4807    4.1508   -1.2458 N.2       1 ACP        -0.2746
     25 C5         -1.1921    3.8572   -0.1126 C.ar      1 ACP        -0.1386
     26 C6         -2.4855    4.5203    0.2163 C.ar      1 ACP         0.4778
     27 N6         -2.9873    5.4319   -0.6020 N.pl3     1 ACP        -0.8290
     28 N1         -3.0414    4.1119    1.3596 N.pl3     1 ACP        -0.6985
     29 C2         -2.4169    3.1071    2.1904 C.ar      1 ACP         0.6179
     30 N3         -1.2928    2.5191    1.9210 N.ar      1 ACP        -0.5105
     31 C4         -0.7202    2.9326    0.7534 C.ar      1 ACP         0.2753
     32 HOG2        3.0430   -1.4115   -9.6385 H         1 ACP         0.4487
     33 HOG3        4.2784   -3.0697   -7.6437 H         1 ACP         0.4487
     34 H3B1        0.0921   -1.5293   -7.1006 H         1 ACP         0.1088
     35 H3B2        0.8591   -2.5488   -5.8863 H         1 ACP         0.1088
     36 H5'1        1.2154   -0.0780   -2.0455 H         1 ACP         0.0327
     37 H5'2        2.4646   -1.3453   -2.1548 H         1 ACP         0.0327
     38 H4'         3.8046   -0.1390   -0.4011 H         1 ACP         0.1275
     39 H3'         1.6787   -1.7627    0.2719 H         1 ACP         0.0637
     40 HO3'        3.5553   -1.2733    1.4913 H         1 ACP         0.4127
     41 H2'         0.0002   -0.0084   -0.0014 H         1 ACP         0.0692
     42 HO2'        0.8091    0.1203    2.7213 H         1 ACP         0.4431
     43 H1'         1.7718    1.9211    1.6015 H         1 ACP         0.1199
     44 H8          1.3565    3.3309   -1.8916 H         1 ACP         0.2941
     45 HN61       -2.4952    5.6785   -1.4487 H         1 ACP         0.4754
     46 HN62       -3.8637    5.8828   -0.3819 H         1 ACP         0.4754
     47 H2         -2.9911    2.8734    3.1000 H         1 ACP         0.0886
     48 H48        -3.9253    4.5332    1.6302 H         1 ACP         0.4707
@<TRIPOS>BOND
     1    1    2 2
     2    1    3 1
     3    1    4 1
     4    1    8 1
     5    3   32 1
     6    4   33 1
     7    5    6 2
     8    5    7 1
     9    5    8 1
    10    5   12 1
    11    8   34 1
    12    8   35 1
    13    9   10 2
    14    9   11 1
    15    9   12 1
    16    9   13 1
    17   13   14 1
    18   14   15 1
    19   14   36 1
    20   14   37 1
    21   15   16 1
    22   15   17 1
    23   15   38 1
    24   16   21 1
    25   17   18 1
    26   17   19 1
    27   17   39 1
    28   18   40 1
    29   19   20 1
    30   19   21 1
    31   19   41 1
    32   20   42 1
    33   21   22 1
    34   21   43 1
    35   22   23 ar
    36   22   31 ar
    37   23   24 ar
    38   23   44 1
    39   24   25 ar
    40   25   26 ar
    41   25   31 ar
    42   26   27 1
    43   26   28 ar
    44   27   45 1
    45   27   46 1
    46   28   29 ar
    47   28   48 1
    48   29   30 ar
    49   29   47 1
    50   30   31 ar
@<TRIPOS>SUBSTRUCTURE
     1 ACP         1 GROUP 0 A     ****
@<TRIPOS>MOLECULE
[[5-(6-amino-1,8-dihydropurine-6,8-diylium-7-id-9-yl)-3,4-dihydroxy-tetrahydrofuran-2-yl]methoxy-oxido-phosphoryl]oxy-(phosphonomethyl)phosphinate
   48    50     1     0     0
SMALL
USER_CHARGES

@<TRIPOS>ATOM
      1 PG          1.5429   -3.7583   -5.8793 P.3       1 ACP         1.6558
      2 O1G         2.0744   -4.7103   -4.8504 O.2       1 ACP        -0.9020
      3 O2G         0.3450   -2.7955   -5.3808 O.3       1 ACP        -0.8036
      4 O3G         0.9479   -4.4436   -7.2157 O.3       1 ACP        -0.8036
      5 PB          3.6739   -1.3905   -5.4523 P.3       1 ACP         1.4945
      6 O1B         4.6006   -0.6030   -6.3494 O.co2     1 ACP        -0.8481
      7 O2B         4.1717   -2.1475   -4.2429 O.co2     1 ACP        -0.8481
      8 C3B         2.7679   -2.5961   -6.5230 C.3       1 ACP        -0.6636
      9 PA          2.3308    0.9611   -4.2388 P.3       1 ACP         1.6023
     10 O1A         0.8771    1.3091   -4.0021 O.co2     1 ACP        -0.8673
     11 O2A         3.2554    1.9407   -4.9284 O.co2     1 ACP        -0.8673
     12 O3A         2.3991   -0.4624   -5.0367 O.3       1 ACP        -0.8150
     13 O5'         3.0199    0.5139   -2.8245 O.3       1 ACP        -0.5522
     14 C5'         2.2816   -0.2918   -1.9206 C.3       1 ACP         0.2181
     15 C4'         2.7248    0.0226   -0.4980 C.3       1 ACP         0.0915
     16 O4'         2.4697    1.4219   -0.2462 O.3       1 ACP        -0.3675
     17 C3'         1.9404   -0.7419    0.5596 C.3       1 ACP         0.0748
     18 O3'         2.7418   -0.8086    1.7389 O.3       1 ACP        -0.5646
     19 C2'         0.7477    0.1630    0.7858 C.3       1 ACP         0.0804
     20 O2'         0.1373   -0.0577    2.0407 O.3       1 ACP        -0.5882
     21 C1'         1.3733    1.5427    0.6747 C.3       1 ACP         0.3809
     22 N9          0.4520    2.5240    0.1767 N.pl3     1 ACP        -0.4412
     23 C8         -0.7463    2.2774   -0.7501 C.ar      1 ACP         0.1936
     24 N7         -1.3714    3.4419   -0.9948 N.2       1 ACP        -0.2746
     25 C5         -0.6104    4.3223   -0.2723 C.ar      1 ACP        -0.1386
     26 C6         -0.9062    5.7820   -0.2194 C.ar      1 ACP         0.4778
     27 N6         -1.9385    6.2713   -0.8881 N.pl3     1 ACP        -0.8290
     28 N1         -0.0613    6.4906    0.5336 N.pl3     1 ACP        -0.6985
     29 C2          1.0416    5.8662    1.2291 C.ar      1 ACP         0.6179
     30 N3          1.3146    4.5989    1.1954 N.ar      1 ACP        -0.5105
     31 C4          0.4541    3.8697    0.4273 C.ar      1 ACP         0.2753
     32 HOG2       -0.4879   -3.2013   -5.0589 H         1 ACP         0.4487
     33 HOG3        0.1945   -5.0665   -7.1352 H         1 ACP         0.4487
     34 H3B1        3.5440   -3.1804   -7.0301 H         1 ACP         0.1088
     35 H3B2        2.2667   -1.9962   -7.2912 H         1 ACP         0.1088
     36 H5'1        1.2154   -0.0780   -2.0455 H         1 ACP         0.0327
     37 H5'2        2.4646   -1.3453   -2.1548 H         1 ACP         0.0327
     38 H4'         3.8046   -0.1390   -0.4011 H         1 ACP         0.1275
     39 H3'         1.6787   -1.7627    0.2719 H         1 ACP         0.0637
     40 HO3'        2.2231   -1.2979    2.3952 H         1 ACP         0.4127
     41 H2'         0.0002   -0.0084   -0.0014 H         1 ACP         0.0692
     42 HO2'       -0.6132    0.5577    2.1063 H         1 ACP         0.4431
     43 H1'         1.7718    1.9211    1.6015 H         1 ACP         0.1199
     44 H8         -1.1244    1.3534   -1.1987 H         1 ACP         0.2941
     45 HN61       -2.5259    5.6573   -1.4336 H         1 ACP         0.4754
     46 HN62       -2.1416    7.2600   -0.8539 H         1 ACP         0.4754
     47 H2          1.6509    6.5764    1.8088 H         1 ACP         0.0886
     48 H48        -0.2190    7.4917    0.6033 H         1 ACP         0.4707
@<TRIPOS>BOND
     1    1    2 2
     2    1    3 1
     3    1    4 1
     4    1    8 1
     5    3   32 1
     6    4   33 1
     7    5    6 2
     8    5    7 1
     9    5    8 1
    10    5   12 1
    11    8   34 1
    12    8   35 1
    13    9   10 2
    14    9   11 1
    15    9   12 1
    16    9   13 1
    17   13   14 1
    18   14   15 1
    19   14   36 1
    20   14   37 1
    21   15   16 1
    22   15   17 1
    23   15   38 1
    24   16   21 1
    25   17   18 1
    26   17   19 1
    27   17   39 1
    28   18   40 1
    29   19   20 1
    30   19   21 1
    31   19   41 1
    32   20   42 1
    33   21   22 1
    34   21   43 1
    35   22   23 ar
    36   22   31 ar
    37   23   24 ar
    38   23   44 1
    39   24   25 ar
    40   25   26 ar
    41   25   31 ar
    42   26   27 1
    43   26   28 ar
    44   27   45 1
    45   27   46 1
    46   28   29 ar
    47   28   48 1
    48   29   30 ar
    49   29   47 1
    50   30   31 ar
@<TRIPOS>SUBSTRUCTURE
     1 ACP         1 GROUP 0 A     ****
@<TRIPOS>MOLECULE
[[5-(6-amino-1,8-dihydropurine-6,8-diylium-7-id-9-yl)-3,4-dihydroxy-tetrahydrofuran-2-yl]methoxy-oxido-phosphoryl]oxy-(phosphonomethyl)phosphinate
   48    50     1     0     0
SMALL
USER_CHARGES

@<TRIPOS>ATOM
      1 PG         -2.4030   -3.0917   -5.0052 P.3       1 ACP         1.6558
      2 O1G        -1.4978   -2.3798   -5.9650 O.2       1 ACP        -0.9020
      3 O2G        -2.3542   -4.7052   -5.0720 O.3       1 ACP        -0.8036
      4 O3G        -3.9755   -2.7531   -5.1548 O.3       1 ACP        -0.8036
      5 PB         -0.4463   -3.1009   -2.4554 P.3       1 ACP         1.4945
      6 O1B        -0.2085   -4.5884   -2.5740 O.co2     1 ACP        -0.8481
      7 O2B        -0.4371   -2.3855   -1.1243 O.co2     1 ACP        -0.8481
      8 C3B        -2.0697   -2.7389   -3.2645 C.3       1 ACP        -0.6636
      9 PA          2.1358   -2.2685   -3.6578 P.3       1 ACP         1.6023
     10 O1A         2.4970   -1.2612   -4.7281 O.co2     1 ACP        -0.8673
     11 O2A         2.6457   -3.6911   -3.7347 O.co2     1 ACP        -0.8673
     12 O3A         0.5094   -2.3101   -3.5139 O.3       1 ACP        -0.8150
     13 O5'         2.5238   -1.6632   -2.1888 O.3       1 ACP        -0.5522
     14 C5'         2.2816   -0.2918   -1.9206 C.3       1 ACP         0.2181
     15 C4'         2.7248    0.0226   -0.4980 C.3       1 ACP         0.0915
     16 O4'         2.4697    1.4219   -0.2462 O.3       1 ACP        -0.3675
     17 C3'         1.9404   -0.7419    0.5596 C.3       1 ACP         0.0748
     18 O3'         2.7418   -0.8086    1.7389 O.3       1 ACP        -0.5646
     19 C2'         0.7477    0.1630    0.7858 C.3       1 ACP         0.0804
     20 O2'         0.1373   -0.0577    2.0407 O.3       1 ACP        -0.5882
     21 C1'         1.3733    1.5427    0.6747 C.3       1 ACP         0.3809
     22 N9          0.4520    2.5240    0.1767 N.pl3     1 ACP        -0.4412
     23 C8         -1.0660    2.5608    0.3999 C.ar      1 ACP         0.1936
     24 N7         -1.5852    3.6333   -0.2221 N.2       1 ACP        -0.2746
     25 C5         -0.4682    4.1996   -0.7771 C.ar      1 ACP        -0.1386
     26 C6         -0.5216    5.4476   -1.5899 C.ar      1 ACP         0.4778
     27 N6         -1.6813    6.0510   -1.7982 N.pl3     1 ACP        -0.8290
     28 N1          0.6621    5.8575   -2.0523 N.pl3     1 ACP        -0.6985
     29 C2          1.8795    5.1301   -1.7717 C.ar      1 ACP         0.6179
     30 N3          1.9458    4.0434   -1.0670 N.ar      1 ACP        -0.5105
     31 C4          0.7388    3.6199   -0.5917 C.ar      1 ACP         0.2753
     32 HOG2       -2.5892   -5.1532   -5.9124 H         1 ACP         0.4487
     33 HOG3       -4.4237   -2.9439   -6.0061 H         1 ACP         0.4487
     34 H3B1       -2.2465   -1.6694   -3.1038 H         1 ACP         0.1088
     35 H3B2       -2.8226   -3.2787   -2.6790 H         1 ACP         0.1088
     36 H5'1        2.8430    0.3138   -2.6391 H         1 ACP         0.0327
     37 H5'2        1.2126   -0.0907   -2.0421 H         1 ACP         0.0327
     38 H4'         3.8046   -0.1390   -0.4011 H         1 ACP         0.1275
     39 H3'         1.6787   -1.7627    0.2719 H         1 ACP         0.0637
     40 HO3'        2.2231   -1.2979    2.3952 H         1 ACP         0.4127
     41 H2'         0.0002   -0.0084   -0.0014 H         1 ACP         0.0692
     42 HO2'       -0.1554   -0.9852    2.0577 H         1 ACP         0.4431
     43 H1'         1.7718    1.9211    1.6015 H         1 ACP         0.1199
     44 H8         -1.7235    1.8833    0.9537 H         1 ACP         0.2941
     45 HN61       -2.5296    5.6672   -1.4072 H         1 ACP         0.4754
     46 HN62       -1.7205    6.8969   -2.3483 H         1 ACP         0.4754
     47 H2          2.7750    5.5878   -2.2190 H         1 ACP         0.0886
     48 H48         0.6808    6.7046   -2.6128 H         1 ACP         0.4707
@<TRIPOS>BOND
     1    1    2 2
     2    1    3 1
     3    1    4 1
     4    1    8 1
     5    3   32 1
     6    4   33 1
     7    5    6 2
     8    5    7 1
     9    5    8 1
    10    5   12 1
    11    8   34 1
    12    8   35 1
    13    9   10 2
    14    9   11 1
    15    9   12 1
    16    9   13 1
    17   13   14 1
    18   14   15 1
    19   14   36 1
    20   14   37 1
    21   15   16 1
    22   15   17 1
    23   15   38 1
    24   16   21 1
    25   17   18 1
    26   17   19 1
    27   17   39 1
    28   18   40 1
    29   19   20 1
    30   19   21 1
    31   19   41 1
    32   20   42 1
    33   21   22 1
    34   21   43 1
    35   22   23 ar
    36   22   31 ar
    37   23   24 ar
    38   23   44 1
    39   24   25 ar
    40   25   26 ar
    41   25   31 ar
    42   26   27 1
    43   26   28 ar
    44   27   45 1
    45   27   46 1
    46   28   29 ar
    47   28   48 1
    48   29   30 ar
    49   29   47 1
    50   30   31 ar
@<TRIPOS>SUBSTRUCTURE
     1 ACP         1 GROUP 0 A     ****
@<TRIPOS>MOLECULE
[[5-(6-amino-1,8-dihydropurine-6,8-diylium-7-id-9-yl)-3,4-dihydroxy-tetrahydrofuran-2-yl]methoxy-oxido-phosphoryl]oxy-(phosphonomethyl)phosphinate
   48    50     1     0     0
SMALL
USER_CHARGES

@<TRIPOS>ATOM
      1 PG         -0.9329   -8.8899    2.1479 P.3       1 ACP         1.6558
      2 O1G        -0.9187   -7.6422    1.3170 O.2       1 ACP        -0.9020
      3 O2G        -0.1257  -10.1450    1.5288 O.3       1 ACP        -0.8036
      4 O3G        -2.3967   -9.4972    2.4610 O.3       1 ACP        -0.8036
      5 PB         -0.8530   -7.5067    5.0480 P.3       1 ACP         1.4945
      6 O1B         0.0110   -7.6417    6.2804 O.co2     1 ACP        -0.8481
      7 O2B        -2.3546   -7.6704    5.0930 O.co2     1 ACP        -0.8481
      8 C3B        -0.2059   -8.6996    3.7913 C.3       1 ACP        -0.6636
      9 PA         -0.5283   -4.5720    4.7510 P.3       1 ACP         1.6023
     10 O1A         0.4835   -4.3793    5.8599 O.co2     1 ACP        -0.8673
     11 O2A        -1.9777   -4.1878    4.9548 O.co2     1 ACP        -0.8673
     12 O3A        -0.4709   -6.1295    4.2627 O.3       1 ACP        -0.8150
     13 O5'         0.0100   -3.8402    3.3910 O.3       1 ACP        -0.5522
     14 C5'        -0.7840   -3.8935    2.2172 C.3       1 ACP         0.2181
     15 C4'        -0.0724   -3.1466    1.1027 C.3       1 ACP         0.0915
     16 O4'        -0.8674   -3.1929   -0.0945 O.3       1 ACP        -0.3675
     17 C3'         0.1338   -1.6715    1.4027 C.3       1 ACP         0.0748
     18 O3'         1.2893   -1.4445    2.1808 O.3       1 ACP        -0.5646
     19 C2'         0.2158   -1.0724    0.0128 C.3       1 ACP         0.0804
     20 O2'         1.5141   -1.2448   -0.5513 O.3       1 ACP        -0.5882
     21 C1'        -0.7897   -1.9176   -0.7583 C.3       1 ACP         0.3809
     22 N9         -2.1040   -1.3333   -0.7704 N.pl3     1 ACP        -0.4412
     23 C8         -3.2124   -1.5345    0.2719 C.ar      1 ACP         0.1936
     24 N7         -4.2964   -0.8234   -0.0828 N.2       1 ACP        -0.2746
     25 C5         -3.8754   -0.2386   -1.2478 C.ar      1 ACP        -0.1386
     26 C6         -4.7432    0.6719   -2.0470 C.ar      1 ACP         0.4778
     27 N6         -5.9725    0.9415   -1.6366 N.pl3     1 ACP        -0.8290
     28 N1         -4.1703    1.1517   -3.1536 N.pl3     1 ACP        -0.6985
     29 C2         -2.8174    0.7994   -3.5215 C.ar      1 ACP         0.6179
     30 N3         -2.0475    0.0097   -2.8393 N.ar      1 ACP        -0.5105
     31 C4         -2.6278   -0.4836   -1.7071 C.ar      1 ACP         0.2753
     32 HOG2       -0.3987  -10.5021    0.6570 H         1 ACP         0.4487
     33 HOG3       -2.9686   -9.7688    1.7119 H         1 ACP         0.4487
     34 H3B1       -0.2278   -9.6809    4.2786 H         1 ACP         0.1088
     35 H3B2        0.8486   -8.4385    3.6462 H         1 ACP         0.1088
     36 H5'1       -0.9357   -4.9414    1.9397 H         1 ACP         0.0327
     37 H5'2       -1.7557   -3.4349    2.4259 H         1 ACP         0.0327
     38 H4'         0.8883   -3.6447    0.8783 H         1 ACP         0.1275
     39 H3'        -0.7368   -1.2359    1.9871 H         1 ACP         0.0637
     40 HO3'        1.1625   -1.9325    3.0084 H         1 ACP         0.4127
     41 H2'        -0.0343   -0.0280    0.0196 H         1 ACP         0.0692
     42 HO2'        2.1443   -0.7955    0.0378 H         1 ACP         0.4431
     43 H1'        -0.5175   -2.1046   -1.7826 H         1 ACP         0.1199
     44 H8         -3.2310   -2.1319    1.1889 H         1 ACP         0.2941
     45 HN61       -6.3230    0.5316   -0.7829 H         1 ACP         0.4754
     46 HN62       -6.5628    1.5584   -2.1760 H         1 ACP         0.4754
     47 H2         -2.4822    1.2710   -4.4579 H         1 ACP         0.0886
     48 H48        -4.7200    1.7780   -3.7346 H         1 ACP         0.4707
@<TRIPOS>BOND
     1    1    2 2
     2    1    3 1
     3    1    4 1
     4    1    8 1
     5    3   32 1
     6    4   33 1
     7    5    6 2
     8    5    7 1
     9    5    8 1
    10    5   12 1
    11    8   34 1
    12    8   35 1
    13    9   10 2
    14    9   11 1
    15    9   12 1
    16    9   13 1
    17   13   14 1
    18   14   15 1
    19   14   36 1
    20   14   37 1
    21   15   16 1
    22   15   17 1
    23   15   38 1
    24   16   21 1
    25   17   18 1
    26   17   19 1
    27   17   39 1
    28   18   40 1
    29   19   20 1
    30   19   21 1
    31   19   41 1
    32   20   42 1
    33   21   22 1
    34   21   43 1
    35   22   23 ar
    36   22   31 ar
    37   23   24 ar
    38   23   44 1
    39   24   25 ar
    40   25   26 ar
    41   25   31 ar
    42   26   27 1
    43   26   28 ar
    44   27   45 1
    45   27   46 1
    46   28   29 ar
    47   28   48 1
    48   29   30 ar
    49   29   47 1
    50   30   31 ar
@<TRIPOS>SUBSTRUCTURE
     1 ACP         1 GROUP 0 A     ****
@<TRIPOS>MOLECULE
[[5-(6-amino-1,8-dihydropurine-6,8-diylium-7-id-9-yl)-3,4-dihydroxy-tetrahydrofuran-2-yl]methoxy-oxido-phosphoryl]oxy-(phosphonomethyl)phosphinate
   48    50     1     0     0
SMALL
USER_CHARGES

@<TRIPOS>ATOM
      1 PG          1.6765   -0.6221   -7.9555 P.3       1 ACP         1.6558
      2 O1G         0.3221   -1.0409   -7.4683 O.2       1 ACP        -0.9020
      3 O2G         1.7060    0.7187   -8.8564 O.3       1 ACP        -0.8036
      4 O3G         2.4517   -1.7083   -8.8661 O.3       1 ACP        -0.8036
      5 PB          3.3825   -1.5166   -5.3826 P.3       1 ACP         1.4945
      6 O1B         4.3761   -0.8439   -4.4641 O.co2     1 ACP        -0.8481
      7 O2B         3.7047   -2.7934   -6.1240 O.co2     1 ACP        -0.8481
      8 C3B         2.8639   -0.2643   -6.6411 C.3       1 ACP        -0.6636
      9 PA          1.5529   -2.4527   -3.2419 P.3       1 ACP         1.6023
     10 O1A         2.0063   -3.8917   -3.3620 O.co2     1 ACP        -0.8673
     11 O2A         0.1158   -2.1233   -2.9012 O.co2     1 ACP        -0.8673
     12 O3A         1.9500   -1.6683   -4.6184 O.3       1 ACP        -0.8150
     13 O5'         2.5238   -1.6632   -2.1888 O.3       1 ACP        -0.5522
     14 C5'         2.2816   -0.2918   -1.9206 C.3       1 ACP         0.2181
     15 C4'         2.7248    0.0226   -0.4980 C.3       1 ACP         0.0915
     16 O4'         2.4697    1.4219   -0.2462 O.3       1 ACP        -0.3675
     17 C3'         1.9404   -0.7419    0.5596 C.3       1 ACP         0.0748
     18 O3'         2.7418   -0.8086    1.7389 O.3       1 ACP        -0.5646
     19 C2'         0.7477    0.1630    0.7858 C.3       1 ACP         0.0804
     20 O2'         0.1373   -0.0577    2.0407 O.3       1 ACP        -0.5882
     21 C1'         1.3733    1.5427    0.6747 C.3       1 ACP         0.3809
     22 N9          0.4520    2.5240    0.1767 N.pl3     1 ACP        -0.4412
     23 C8          0.5793    3.3338   -1.1209 C.ar      1 ACP         0.1936
     24 N7         -0.4807    4.1508   -1.2458 N.2       1 ACP        -0.2746
     25 C5         -1.1921    3.8572   -0.1126 C.ar      1 ACP        -0.1386
     26 C6         -2.4855    4.5203    0.2163 C.ar      1 ACP         0.4778
     27 N6         -2.9873    5.4319   -0.6020 N.pl3     1 ACP        -0.8290
     28 N1         -3.0414    4.1119    1.3596 N.pl3     1 ACP        -0.6985
     29 C2         -2.4169    3.1071    2.1904 C.ar      1 ACP         0.6179
     30 N3         -1.2928    2.5191    1.9210 N.ar      1 ACP        -0.5105
     31 C4         -0.7202    2.9326    0.7534 C.ar      1 ACP         0.2753
     32 HOG2        1.1954    0.7398   -9.6936 H         1 ACP         0.4487
     33 HOG3        2.0391   -2.0067   -9.7043 H         1 ACP         0.4487
     34 H3B1        3.7908    0.0766   -7.1161 H         1 ACP         0.1088
     35 H3B2        2.4657    0.5838   -6.0726 H         1 ACP         0.1088
     36 H5'1        2.8430    0.3138   -2.6391 H         1 ACP         0.0327
     37 H5'2        1.2126   -0.0907   -2.0421 H         1 ACP         0.0327
     38 H4'         3.8046   -0.1390   -0.4011 H         1 ACP         0.1275
     39 H3'         1.6787   -1.7627    0.2719 H         1 ACP         0.0637
     40 HO3'        3.5553   -1.2733    1.4913 H         1 ACP         0.4127
     41 H2'         0.0002   -0.0084   -0.0014 H         1 ACP         0.0692
     42 HO2'       -0.1554   -0.9852    2.0577 H         1 ACP         0.4431
     43 H1'         1.7718    1.9211    1.6015 H         1 ACP         0.1199
     44 H8          1.3565    3.3309   -1.8916 H         1 ACP         0.2941
     45 HN61       -2.4952    5.6785   -1.4487 H         1 ACP         0.4754
     46 HN62       -3.8637    5.8828   -0.3819 H         1 ACP         0.4754
     47 H2         -2.9911    2.8734    3.1000 H         1 ACP         0.0886
     48 H48        -3.9253    4.5332    1.6302 H         1 ACP         0.4707
@<TRIPOS>BOND
     1    1    2 2
     2    1    3 1
     3    1    4 1
     4    1    8 1
     5    3   32 1
     6    4   33 1
     7    5    6 2
     8    5    7 1
     9    5    8 1
    10    5   12 1
    11    8   34 1
    12    8   35 1
    13    9   10 2
    14    9   11 1
    15    9   12 1
    16    9   13 1
    17   13   14 1
    18   14   15 1
    19   14   36 1
    20   14   37 1
    21   15   16 1
    22   15   17 1
    23   15   38 1
    24   16   21 1
    25   17   18 1
    26   17   19 1
    27   17   39 1
    28   18   40 1
    29   19   20 1
    30   19   21 1
    31   19   41 1
    32   20   42 1
    33   21   22 1
    34   21   43 1
    35   22   23 ar
    36   22   31 ar
    37   23   24 ar
    38   23   44 1
    39   24   25 ar
    40   25   26 ar
    41   25   31 ar
    42   26   27 1
    43   26   28 ar
    44   27   45 1
    45   27   46 1
    46   28   29 ar
    47   28   48 1
    48   29   30 ar
    49   29   47 1
    50   30   31 ar
@<TRIPOS>SUBSTRUCTURE
     1 ACP         1 GROUP 0 A     ****
@<TRIPOS>MOLECULE
[[5-(6-amino-1,8-dihydropurine-6,8-diylium-7-id-9-yl)-3,4-dihydroxy-tetrahydrofuran-2-yl]methoxy-oxido-phosphoryl]oxy-(phosphonomethyl)phosphinate
   48    50     1     0     0
SMALL
USER_CHARGES

@<TRIPOS>ATOM
      1 PG          4.0901   -2.2707   -6.9088 P.3       1 ACP         1.6558
      2 O1G         4.7780   -1.9848   -5.6079 O.2       1 ACP        -0.9020
      3 O2G         3.4326   -3.7408   -7.0377 O.3       1 ACP        -0.8036
      4 O3G         5.0200   -2.1542   -8.2246 O.3       1 ACP        -0.8036
      5 PB          1.2216   -1.0095   -6.1939 P.3       1 ACP         1.4945
      6 O1B         0.5792   -2.3750   -6.1151 O.co2     1 ACP        -0.8481
      7 O2B         0.4607    0.2158   -6.6449 O.co2     1 ACP        -0.8481
      8 C3B         2.7098   -1.1654   -7.2810 C.3       1 ACP        -0.6636
      9 PA          2.8587    0.6155   -4.3269 P.3       1 ACP         1.6023
     10 O1A         1.9171    1.7961   -4.2263 O.co2     1 ACP        -0.8673
     11 O2A         4.1093    0.6971   -5.1750 O.co2     1 ACP        -0.8673
     12 O3A         2.0007   -0.6924   -4.7968 O.3       1 ACP        -0.8150
     13 O5'         3.2885    0.1337   -2.8242 O.3       1 ACP        -0.5522
     14 C5'         2.2816   -0.2918   -1.9206 C.3       1 ACP         0.2181
     15 C4'         2.7248    0.0226   -0.4980 C.3       1 ACP         0.0915
     16 O4'         2.4697    1.4219   -0.2462 O.3       1 ACP        -0.3675
     17 C3'         1.9404   -0.7419    0.5596 C.3       1 ACP         0.0748
     18 O3'         2.7418   -0.8086    1.7389 O.3       1 ACP        -0.5646
     19 C2'         0.7477    0.1630    0.7858 C.3       1 ACP         0.0804
     20 O2'         0.1373   -0.0577    2.0407 O.3       1 ACP        -0.5882
     21 C1'         1.3733    1.5427    0.6747 C.3       1 ACP         0.3809
     22 N9          0.4520    2.5240    0.1767 N.pl3     1 ACP        -0.4412
     23 C8         -0.3054    2.4845   -1.1576 C.ar      1 ACP         0.1936
     24 N7         -1.0755    3.5806   -1.2691 N.2       1 ACP        -0.2746
     25 C5         -0.8043    4.2306   -0.0942 C.ar      1 ACP        -0.1386
     26 C6         -1.4324    5.5335    0.2646 C.ar      1 ACP         0.4778
     27 N6         -2.2885    6.1054   -0.5675 N.pl3     1 ACP        -0.8290
     28 N1         -1.0537    6.0229    1.4478 N.pl3     1 ACP        -0.6985
     29 C2         -0.1096    5.3242    2.2908 C.ar      1 ACP         0.6179
     30 N3          0.4468    4.1904    1.9960 N.ar      1 ACP        -0.5105
     31 C4          0.0631    3.6855    0.7877 C.ar      1 ACP         0.2753
     32 HOG2        4.0115   -4.5287   -6.9594 H         1 ACP         0.4487
     33 HOG3        5.8080   -2.7330   -8.3023 H         1 ACP         0.4487
     34 H3B1        3.1138   -0.1510   -7.3740 H         1 ACP         0.1088
     35 H3B2        2.3300   -1.4496   -8.2690 H         1 ACP         0.1088
     36 H5'1        1.3501    0.2325   -2.1561 H         1 ACP         0.0327
     37 H5'2        2.1268   -1.3683   -2.0445 H         1 ACP         0.0327
     38 H4'         3.8046   -0.1390   -0.4011 H         1 ACP         0.1275
     39 H3'         1.6787   -1.7627    0.2719 H         1 ACP         0.0637
     40 HO3'        2.2231   -1.2979    2.3952 H         1 ACP         0.4127
     41 H2'         0.0002   -0.0084   -0.0014 H         1 ACP         0.0692
     42 HO2'       -0.6132    0.5577    2.1063 H         1 ACP         0.4431
     43 H1'         1.7718    1.9211    1.6015 H         1 ACP         0.1199
     44 H8         -0.2991    1.7413   -1.9611 H         1 ACP         0.2941
     45 HN61       -2.5167    5.6603   -1.4447 H         1 ACP         0.4754
     46 HN62       -2.7159    6.9882   -0.3270 H         1 ACP         0.4754
     47 H2          0.1059    5.8491    3.2340 H         1 ACP         0.0886
     48 H48        -1.4532    6.9099    1.7401 H         1 ACP         0.4707
@<TRIPOS>BOND
     1    1    2 2
     2    1    3 1
     3    1    4 1
     4    1    8 1
     5    3   32 1
     6    4   33 1
     7    5    6 2
     8    5    7 1
     9    5    8 1
    10    5   12 1
    11    8   34 1
    12    8   35 1
    13    9   10 2
    14    9   11 1
    15    9   12 1
    16    9   13 1
    17   13   14 1
    18   14   15 1
    19   14   36 1
    20   14   37 1
    21   15   16 1
    22   15   17 1
    23   15   38 1
    24   16   21 1
    25   17   18 1
    26   17   19 1
    27   17   39 1
    28   18   40 1
    29   19   20 1
    30   19   21 1
    31   19   41 1
    32   20   42 1
    33   21   22 1
    34   21   43 1
    35   22   23 ar
    36   22   31 ar
    37   23   24 ar
    38   23   44 1
    39   24   25 ar
    40   25   26 ar
    41   25   31 ar
    42   26   27 1
    43   26   28 ar
    44   27   45 1
    45   27   46 1
    46   28   29 ar
    47   28   48 1
    48   29   30 ar
    49   29   47 1
    50   30   31 ar
@<TRIPOS>SUBSTRUCTURE
     1 ACP         1 GROUP 0 A     ****
@<TRIPOS>MOLECULE
[[5-(6-amino-1,8-dihydropurine-6,8-diylium-7-id-9-yl)-3,4-dihydroxy-tetrahydrofuran-2-yl]methoxy-oxido-phosphoryl]oxy-(phosphonomethyl)phosphinate
   48    50     1     0     0
SMALL
USER_CHARGES

@<TRIPOS>ATOM
      1 PG          0.5804   -5.7807    7.6527 P.3       1 ACP         1.6558
      2 O1G         0.7595   -7.1911    8.1281 O.2       1 ACP        -0.9020
      3 O2G         0.9954   -4.6334    8.7118 O.3       1 ACP        -0.8036
      4 O3G        -0.9256   -5.3786    7.2283 O.3       1 ACP        -0.8036
      5 PB          1.3600   -6.2374    4.5683 P.3       1 ACP         1.4945
      6 O1B         1.6840   -7.6937    4.8085 O.co2     1 ACP        -0.8481
      7 O2B         2.0752   -5.4131    3.5229 O.co2     1 ACP        -0.8481
      8 C3B         1.5478   -5.3598    6.1856 C.3       1 ACP        -0.6636
      9 PA         -1.2319   -6.3265    3.1261 P.3       1 ACP         1.6023
     10 O1A        -2.6267   -5.8603    3.4836 O.co2     1 ACP        -0.8673
     11 O2A        -0.9939   -7.7360    2.6295 O.co2     1 ACP        -0.8673
     12 O3A        -0.2525   -6.0575    4.4051 O.3       1 ACP        -0.8150
     13 O5'        -0.5696   -5.2856    2.0523 O.3       1 ACP        -0.5522
     14 C5'        -0.7840   -3.8935    2.2172 C.3       1 ACP         0.2181
     15 C4'        -0.0724   -3.1466    1.1027 C.3       1 ACP         0.0915
     16 O4'        -0.8674   -3.1929   -0.0945 O.3       1 ACP        -0.3675
     17 C3'         0.1338   -1.6715    1.4027 C.3       1 ACP         0.0748
     18 O3'         1.2893   -1.4445    2.1808 O.3       1 ACP        -0.5646
     19 C2'         0.2158   -1.0724    0.0128 C.3       1 ACP         0.0804
     20 O2'         1.5141   -1.2448   -0.5513 O.3       1 ACP        -0.5882
     21 C1'        -0.7897   -1.9176   -0.7583 C.3       1 ACP         0.3809
     22 N9         -2.1040   -1.3333   -0.7704 N.pl3     1 ACP        -0.4412
     23 C8         -3.2124   -1.5345    0.2719 C.ar      1 ACP         0.1936
     24 N7         -4.2964   -0.8234   -0.0828 N.2       1 ACP        -0.2746
     25 C5         -3.8754   -0.2386   -1.2478 C.ar      1 ACP        -0.1386
     26 C6         -4.7432    0.6719   -2.0470 C.ar      1 ACP         0.4778
     27 N6         -5.9725    0.9415   -1.6366 N.pl3     1 ACP        -0.8290
     28 N1         -4.1703    1.1517   -3.1536 N.pl3     1 ACP        -0.6985
     29 C2         -2.8174    0.7994   -3.5215 C.ar      1 ACP         0.6179
     30 N3         -2.0475    0.0097   -2.8393 N.ar      1 ACP        -0.5105
     31 C4         -2.6278   -0.4836   -1.7071 C.ar      1 ACP         0.2753
     32 HOG2        0.5338   -4.5955    9.5763 H         1 ACP         0.4487
     33 HOG3       -1.6400   -5.4390    7.8976 H         1 ACP         0.4487
     34 H3B1        1.3739   -4.3001    5.9672 H         1 ACP         0.1088
     35 H3B2        2.6042   -5.4604    6.4595 H         1 ACP         0.1088
     36 H5'1       -1.8599   -3.6947    2.1849 H         1 ACP         0.0327
     37 H5'2       -0.3934   -3.5882    3.1930 H         1 ACP         0.0327
     38 H4'         0.8883   -3.6447    0.8783 H         1 ACP         0.1275
     39 H3'        -0.7368   -1.2359    1.9871 H         1 ACP         0.0637
     40 HO3'        1.3407   -0.4871    2.3218 H         1 ACP         0.4127
     41 H2'        -0.0343   -0.0280    0.0196 H         1 ACP         0.0692
     42 HO2'        2.1443   -0.7955    0.0378 H         1 ACP         0.4431
     43 H1'        -0.5175   -2.1046   -1.7826 H         1 ACP         0.1199
     44 H8         -3.2310   -2.1319    1.1889 H         1 ACP         0.2941
     45 HN61       -6.3230    0.5316   -0.7829 H         1 ACP         0.4754
     46 HN62       -6.5628    1.5584   -2.1760 H         1 ACP         0.4754
     47 H2         -2.4822    1.2710   -4.4579 H         1 ACP         0.0886
     48 H48        -4.7200    1.7780   -3.7346 H         1 ACP         0.4707
@<TRIPOS>BOND
     1    1    2 2
     2    1    3 1
     3    1    4 1
     4    1    8 1
     5    3   32 1
     6    4   33 1
     7    5    6 2
     8    5    7 1
     9    5    8 1
    10    5   12 1
    11    8   34 1
    12    8   35 1
    13    9   10 2
    14    9   11 1
    15    9   12 1
    16    9   13 1
    17   13   14 1
    18   14   15 1
    19   14   36 1
    20   14   37 1
    21   15   16 1
    22   15   17 1
    23   15   38 1
    24   16   21 1
    25   17   18 1
    26   17   19 1
    27   17   39 1
    28   18   40 1
    29   19   20 1
    30   19   21 1
    31   19   41 1
    32   20   42 1
    33   21   22 1
    34   21   43 1
    35   22   23 ar
    36   22   31 ar
    37   23   24 ar
    38   23   44 1
    39   24   25 ar
    40   25   26 ar
    41   25   31 ar
    42   26   27 1
    43   26   28 ar
    44   27   45 1
    45   27   46 1
    46   28   29 ar
    47   28   48 1
    48   29   30 ar
    49   29   47 1
    50   30   31 ar
@<TRIPOS>SUBSTRUCTURE
     1 ACP         1 GROUP 0 A     ****
@<TRIPOS>MOLECULE
[[5-(6-amino-1,8-dihydropurine-6,8-diylium-7-id-9-yl)-3,4-dihydroxy-tetrahydrofuran-2-yl]methoxy-oxido-phosphoryl]oxy-(phosphonomethyl)phosphinate
   48    50     1     0     0
SMALL
USER_CHARGES

@<TRIPOS>ATOM
      1 PG          3.3965   -4.4002   -6.5226 P.3       1 ACP         1.6558
      2 O1G         2.9468   -5.7856   -6.8773 O.2       1 ACP        -0.9020
      3 O2G         2.2690   -3.2503   -6.6514 O.3       1 ACP        -0.8036
      4 O3G         4.6263   -3.8255   -7.3983 O.3       1 ACP        -0.8036
      5 PB          4.5910   -2.6145   -4.1321 P.3       1 ACP         1.4945
      6 O1B         5.7750   -2.1878   -4.9685 O.co2     1 ACP        -0.8481
      7 O2B         4.6780   -2.7739   -2.6319 O.co2     1 ACP        -0.8481
      8 C3B         3.9814   -4.2184   -4.8225 C.3       1 ACP        -0.6636
      9 PA          3.0640   -0.0874   -4.4291 P.3       1 ACP         1.6023
     10 O1A         1.6224    0.2104   -4.7809 O.co2     1 ACP        -0.8673
     11 O2A         4.1945    0.5982   -5.1653 O.co2     1 ACP        -0.8673
     12 O3A         3.2953   -1.7018   -4.5162 O.3       1 ACP        -0.8150
     13 O5'         3.2885    0.1337   -2.8242 O.3       1 ACP        -0.5522
     14 C5'         2.2816   -0.2918   -1.9206 C.3       1 ACP         0.2181
     15 C4'         2.7248    0.0226   -0.4980 C.3       1 ACP         0.0915
     16 O4'         2.4697    1.4219   -0.2462 O.3       1 ACP        -0.3675
     17 C3'         1.9404   -0.7419    0.5596 C.3       1 ACP         0.0748
     18 O3'         2.7418   -0.8086    1.7389 O.3       1 ACP        -0.5646
     19 C2'         0.7477    0.1630    0.7858 C.3       1 ACP         0.0804
     20 O2'         0.1373   -0.0577    2.0407 O.3       1 ACP        -0.5882
     21 C1'         1.3733    1.5427    0.6747 C.3       1 ACP         0.3809
     22 N9          0.4520    2.5240    0.1767 N.pl3     1 ACP        -0.4412
     23 C8          0.5793    3.3338   -1.1209 C.ar      1 ACP         0.1936
     24 N7         -0.4807    4.1508   -1.2458 N.2       1 ACP        -0.2746
     25 C5         -1.1921    3.8572   -0.1126 C.ar      1 ACP        -0.1386
     26 C6         -2.4855    4.5203    0.2163 C.ar      1 ACP         0.4778
     27 N6         -2.9873    5.4319   -0.6020 N.pl3     1 ACP        -0.8290
     28 N1         -3.0414    4.1119    1.3596 N.pl3     1 ACP        -0.6985
     29 C2         -2.4169    3.1071    2.1904 C.ar      1 ACP         0.6179
     30 N3         -1.2928    2.5191    1.9210 N.ar      1 ACP        -0.5105
     31 C4         -0.7202    2.9326    0.7534 C.ar      1 ACP         0.2753
     32 HOG2        1.8516   -3.0898   -7.5244 H         1 ACP         0.4487
     33 HOG3        4.5194   -3.7409   -8.3696 H         1 ACP         0.4487
     34 H3B1        3.1700   -4.5355   -4.1576 H         1 ACP         0.1088
     35 H3B2        4.8017   -4.9328   -4.6884 H         1 ACP         0.1088
     36 H5'1        1.3501    0.2325   -2.1561 H         1 ACP         0.0327
     37 H5'2        2.1268   -1.3683   -2.0445 H         1 ACP         0.0327
     38 H4'         3.8046   -0.1390   -0.4011 H         1 ACP         0.1275
     39 H3'         1.6787   -1.7627    0.2719 H         1 ACP         0.0637
     40 HO3'        2.9082    0.1071    2.0091 H         1 ACP         0.4127
     41 H2'         0.0002   -0.0084   -0.0014 H         1 ACP         0.0692
     42 HO2'        0.8091    0.1203    2.7213 H         1 ACP         0.4431
     43 H1'         1.7718    1.9211    1.6015 H         1 ACP         0.1199
     44 H8          1.3565    3.3309   -1.8916 H         1 ACP         0.2941
     45 HN61       -2.4952    5.6785   -1.4487 H         1 ACP         0.4754
     46 HN62       -3.8637    5.8828   -0.3819 H         1 ACP         0.4754
     47 H2         -2.9911    2.8734    3.1000 H         1 ACP         0.0886
     48 H48        -3.9253    4.5332    1.6302 H         1 ACP         0.4707
@<TRIPOS>BOND
     1    1    2 2
     2    1    3 1
     3    1    4 1
     4    1    8 1
     5    3   32 1
     6    4   33 1
     7    5    6 2
     8    5    7 1
     9    5    8 1
    10    5   12 1
    11    8   34 1
    12    8   35 1
    13    9   10 2
    14    9   11 1
    15    9   12 1
    16    9   13 1
    17   13   14 1
    18   14   15 1
    19   14   36 1
    20   14   37 1
    21   15   16 1
    22   15   17 1
    23   15   38 1
    24   16   21 1
    25   17   18 1
    26   17   19 1
    27   17   39 1
    28   18   40 1
    29   19   20 1
    30   19   21 1
    31   19   41 1
    32   20   42 1
    33   21   22 1
    34   21   43 1
    35   22   23 ar
    36   22   31 ar
    37   23   24 ar
    38   23   44 1
    39   24   25 ar
    40   25   26 ar
    41   25   31 ar
    42   26   27 1
    43   26   28 ar
    44   27   45 1
    45   27   46 1
    46   28   29 ar
    47   28   48 1
    48   29   30 ar
    49   29   47 1
    50   30   31 ar
@<TRIPOS>SUBSTRUCTURE
     1 ACP         1 GROUP 0 A     ****
@<TRIPOS>MOLECULE
[[5-(6-amino-1,8-dihydropurine-6,8-diylium-7-id-9-yl)-3,4-dihydroxy-tetrahydrofuran-2-yl]methoxy-oxido-phosphoryl]oxy-(phosphonomethyl)phosphinate
   48    50     1     0     0
SMALL
USER_CHARGES

@<TRIPOS>ATOM
      1 PG          3.9998   -4.2614   -6.1850 P.3       1 ACP         1.6558
      2 O1G         5.1987   -4.2084   -5.2865 O.2       1 ACP        -0.9020
      3 O2G         3.2812   -5.7039   -6.2987 O.3       1 ACP        -0.8036
      4 O3G         4.2683   -3.8489   -7.7236 O.3       1 ACP        -0.8036
      5 PB          2.8391   -1.3282   -5.5693 P.3       1 ACP         1.4945
      6 O1B         1.5042   -0.7694   -5.1345 O.co2     1 ACP        -0.8481
      7 O2B         3.5397   -0.8611   -6.8241 O.co2     1 ACP        -0.8481
      8 C3B         2.6508   -3.1640   -5.6939 C.3       1 ACP        -0.6636
      9 PA          4.4356   -0.0486   -3.4198 P.3       1 ACP         1.6023
     10 O1A         5.0324    0.9810   -4.3549 O.co2     1 ACP        -0.8673
     11 O2A         5.2456   -0.6069   -2.2700 O.co2     1 ACP        -0.8673
     12 O3A         3.8781   -1.2974   -4.3128 O.3       1 ACP        -0.8150
     13 O5'         3.0199    0.5139   -2.8245 O.3       1 ACP        -0.5522
     14 C5'         2.2816   -0.2918   -1.9206 C.3       1 ACP         0.2181
     15 C4'         2.7248    0.0226   -0.4980 C.3       1 ACP         0.0915
     16 O4'         2.4697    1.4219   -0.2462 O.3       1 ACP        -0.3675
     17 C3'         1.9404   -0.7419    0.5596 C.3       1 ACP         0.0748
     18 O3'         2.7418   -0.8086    1.7389 O.3       1 ACP        -0.5646
     19 C2'         0.7477    0.1630    0.7858 C.3       1 ACP         0.0804
     20 O2'         0.1373   -0.0577    2.0407 O.3       1 ACP        -0.5882
     21 C1'         1.3733    1.5427    0.6747 C.3       1 ACP         0.3809
     22 N9          0.4520    2.5240    0.1767 N.pl3     1 ACP        -0.4412
     23 C8         -0.3054    2.4845   -1.1576 C.ar      1 ACP         0.1936
     24 N7         -1.0755    3.5806   -1.2691 N.2       1 ACP        -0.2746
     25 C5         -0.8043    4.2306   -0.0942 C.ar      1 ACP        -0.1386
     26 C6         -1.4324    5.5335    0.2646 C.ar      1 ACP         0.4778
     27 N6         -2.2885    6.1054   -0.5675 N.pl3     1 ACP        -0.8290
     28 N1         -1.0537    6.0229    1.4478 N.pl3     1 ACP        -0.6985
     29 C2         -0.1096    5.3242    2.2908 C.ar      1 ACP         0.6179
     30 N3          0.4468    4.1904    1.9960 N.ar      1 ACP        -0.5105
     31 C4          0.0631    3.6855    0.7877 C.ar      1 ACP         0.2753
     32 HOG2        3.7973   -6.4665   -6.6364 H         1 ACP         0.4487
     33 HOG3        4.9146   -4.3672   -8.2487 H         1 ACP         0.4487
     34 H3B1        1.8206   -3.3280   -6.3900 H         1 ACP         0.1088
     35 H3B2        2.3106   -3.4974   -4.7068 H         1 ACP         0.1088
     36 H5'1        1.2154   -0.0780   -2.0455 H         1 ACP         0.0327
     37 H5'2        2.4646   -1.3453   -2.1548 H         1 ACP         0.0327
     38 H4'         3.8046   -0.1390   -0.4011 H         1 ACP         0.1275
     39 H3'         1.6787   -1.7627    0.2719 H         1 ACP         0.0637
     40 HO3'        3.5553   -1.2733    1.4913 H         1 ACP         0.4127
     41 H2'         0.0002   -0.0084   -0.0014 H         1 ACP         0.0692
     42 HO2'       -0.1554   -0.9852    2.0577 H         1 ACP         0.4431
     43 H1'         1.7718    1.9211    1.6015 H         1 ACP         0.1199
     44 H8         -0.2991    1.7413   -1.9611 H         1 ACP         0.2941
     45 HN61       -2.5167    5.6603   -1.4447 H         1 ACP         0.4754
     46 HN62       -2.7159    6.9882   -0.3270 H         1 ACP         0.4754
     47 H2          0.1059    5.8491    3.2340 H         1 ACP         0.0886
     48 H48        -1.4532    6.9099    1.7401 H         1 ACP         0.4707
@<TRIPOS>BOND
     1    1    2 2
     2    1    3 1
     3    1    4 1
     4    1    8 1
     5    3   32 1
     6    4   33 1
     7    5    6 2
     8    5    7 1
     9    5    8 1
    10    5   12 1
    11    8   34 1
    12    8   35 1
    13    9   10 2
    14    9   11 1
    15    9   12 1
    16    9   13 1
    17   13   14 1
    18   14   15 1
    19   14   36 1
    20   14   37 1
    21   15   16 1
    22   15   17 1
    23   15   38 1
    24   16   21 1
    25   17   18 1
    26   17   19 1
    27   17   39 1
    28   18   40 1
    29   19   20 1
    30   19   21 1
    31   19   41 1
    32   20   42 1
    33   21   22 1
    34   21   43 1
    35   22   23 ar
    36   22   31 ar
    37   23   24 ar
    38   23   44 1
    39   24   25 ar
    40   25   26 ar
    41   25   31 ar
    42   26   27 1
    43   26   28 ar
    44   27   45 1
    45   27   46 1
    46   28   29 ar
    47   28   48 1
    48   29   30 ar
    49   29   47 1
    50   30   31 ar
@<TRIPOS>SUBSTRUCTURE
     1 ACP         1 GROUP 0 A     ****
@<TRIPOS>MOLECULE
[[5-(6-amino-1,8-dihydropurine-6,8-diylium-7-id-9-yl)-3,4-dihydroxy-tetrahydrofuran-2-yl]methoxy-oxido-phosphoryl]oxy-(phosphonomethyl)phosphinate
   48    50     1     0     0
SMALL
USER_CHARGES

@<TRIPOS>ATOM
      1 PG          2.2766   -1.6729   -8.0356 P.3       1 ACP         1.6558
      2 O1G         1.9835   -0.9482   -9.3147 O.2       1 ACP        -0.9020
      3 O2G         3.6144   -1.2018   -7.2618 O.3       1 ACP        -0.8036
      4 O3G         2.4603   -3.2721   -8.1717 O.3       1 ACP        -0.8036
      5 PB          1.1063   -2.3076   -5.1103 P.3       1 ACP         1.4945
      6 O1B         1.2091   -3.7988   -5.3323 O.co2     1 ACP        -0.8481
      7 O2B         0.0329   -1.6929   -4.2422 O.co2     1 ACP        -0.8481
      8 C3B         0.9910   -1.5119   -6.7759 C.3       1 ACP        -0.6636
      9 PA          3.5289   -2.0703   -3.4131 P.3       1 ACP         1.6023
     10 O1A         4.7102   -1.1244   -3.4296 O.co2     1 ACP        -0.8673
     11 O2A         3.7415   -3.5681   -3.3745 O.co2     1 ACP        -0.8673
     12 O3A         2.5658   -1.7182   -4.6843 O.3       1 ACP        -0.8150
     13 O5'         2.5238   -1.6632   -2.1888 O.3       1 ACP        -0.5522
     14 C5'         2.2816   -0.2918   -1.9206 C.3       1 ACP         0.2181
     15 C4'         2.7248    0.0226   -0.4980 C.3       1 ACP         0.0915
     16 O4'         2.4697    1.4219   -0.2462 O.3       1 ACP        -0.3675
     17 C3'         1.9404   -0.7419    0.5596 C.3       1 ACP         0.0748
     18 O3'         2.7418   -0.8086    1.7389 O.3       1 ACP        -0.5646
     19 C2'         0.7477    0.1630    0.7858 C.3       1 ACP         0.0804
     20 O2'         0.1373   -0.0577    2.0407 O.3       1 ACP        -0.5882
     21 C1'         1.3733    1.5427    0.6747 C.3       1 ACP         0.3809
     22 N9          0.4520    2.5240    0.1767 N.pl3     1 ACP        -0.4412
     23 C8         -0.3054    2.4845   -1.1576 C.ar      1 ACP         0.1936
     24 N7         -1.0755    3.5806   -1.2691 N.2       1 ACP        -0.2746
     25 C5         -0.8043    4.2306   -0.0942 C.ar      1 ACP        -0.1386
     26 C6         -1.4324    5.5335    0.2646 C.ar      1 ACP         0.4778
     27 N6         -2.2885    6.1054   -0.5675 N.pl3     1 ACP        -0.8290
     28 N1         -1.0537    6.0229    1.4478 N.pl3     1 ACP        -0.6985
     29 C2         -0.1096    5.3242    2.2908 C.ar      1 ACP         0.6179
     30 N3          0.4468    4.1904    1.9960 N.ar      1 ACP        -0.5105
     31 C4          0.0631    3.6855    0.7877 C.ar      1 ACP         0.2753
     32 HOG2        4.4791   -1.2784   -7.7183 H         1 ACP         0.4487
     33 HOG3        3.1729   -3.6212   -8.7481 H         1 ACP         0.4487
     34 H3B1        0.8496   -0.4426   -6.5820 H         1 ACP         0.1088
     35 H3B2        0.0599   -1.8817   -7.2203 H         1 ACP         0.1088
     36 H5'1        2.8430    0.3138   -2.6391 H         1 ACP         0.0327
     37 H5'2        1.2126   -0.0907   -2.0421 H         1 ACP         0.0327
     38 H4'         3.8046   -0.1390   -0.4011 H         1 ACP         0.1275
     39 H3'         1.6787   -1.7627    0.2719 H         1 ACP         0.0637
     40 HO3'        3.5553   -1.2733    1.4913 H         1 ACP         0.4127
     41 H2'         0.0002   -0.0084   -0.0014 H         1 ACP         0.0692
     42 HO2'       -0.1554   -0.9852    2.0577 H         1 ACP         0.4431
     43 H1'         1.7718    1.9211    1.6015 H         1 ACP         0.1199
     44 H8         -0.2991    1.7413   -1.9611 H         1 ACP         0.2941
     45 HN61       -2.5167    5.6603   -1.4447 H         1 ACP         0.4754
     46 HN62       -2.7159    6.9882   -0.3270 H         1 ACP         0.4754
     47 H2          0.1059    5.8491    3.2340 H         1 ACP         0.0886
     48 H48        -1.4532    6.9099    1.7401 H         1 ACP         0.4707
@<TRIPOS>BOND
     1    1    2 2
     2    1    3 1
     3    1    4 1
     4    1    8 1
     5    3   32 1
     6    4   33 1
     7    5    6 2
     8    5    7 1
     9    5    8 1
    10    5   12 1
    11    8   34 1
    12    8   35 1
    13    9   10 2
    14    9   11 1
    15    9   12 1
    16    9   13 1
    17   13   14 1
    18   14   15 1
    19   14   36 1
    20   14   37 1
    21   15   16 1
    22   15   17 1
    23   15   38 1
    24   16   21 1
    25   17   18 1
    26   17   19 1
    27   17   39 1
    28   18   40 1
    29   19   20 1
    30   19   21 1
    31   19   41 1
    32   20   42 1
    33   21   22 1
    34   21   43 1
    35   22   23 ar
    36   22   31 ar
    37   23   24 ar
    38   23   44 1
    39   24   25 ar
    40   25   26 ar
    41   25   31 ar
    42   26   27 1
    43   26   28 ar
    44   27   45 1
    45   27   46 1
    46   28   29 ar
    47   28   48 1
    48   29   30 ar
    49   29   47 1
    50   30   31 ar
@<TRIPOS>SUBSTRUCTURE
     1 ACP         1 GROUP 0 A     ****
@<TRIPOS>MOLECULE
[[5-(6-amino-1,8-dihydropurine-6,8-diylium-7-id-9-yl)-3,4-dihydroxy-tetrahydrofuran-2-yl]methoxy-oxido-phosphoryl]oxy-(phosphonomethyl)phosphinate
   48    50     1     0     0
SMALL
USER_CHARGES

@<TRIPOS>ATOM
      1 PG          4.6753   -0.1813   -7.5021 P.3       1 ACP         1.6558
      2 O1G         5.4072   -1.2686   -8.2298 O.2       1 ACP        -0.9020
      3 O2G         3.0654   -0.3164   -7.4899 O.3       1 ACP        -0.8036
      4 O3G         4.9263    1.3147   -8.0575 O.3       1 ACP        -0.8036
      5 PB          4.8394   -1.4237   -4.5425 P.3       1 ACP         1.4945
      6 O1B         5.3045   -0.9286   -3.1926 O.co2     1 ACP        -0.8481
      7 O2B         5.3889   -2.6818   -5.1739 O.co2     1 ACP        -0.8481
      8 C3B         5.0929   -0.0452   -5.7492 C.3       1 ACP        -0.6636
      9 PA          2.1358   -2.2685   -3.6578 P.3       1 ACP         1.6023
     10 O1A         2.4845   -3.7405   -3.7033 O.co2     1 ACP        -0.8673
     11 O2A         0.7432   -1.7950   -4.0135 O.co2     1 ACP        -0.8673
     12 O3A         3.2094   -1.4534   -4.5800 O.3       1 ACP        -0.8150
     13 O5'         2.5238   -1.6632   -2.1888 O.3       1 ACP        -0.5522
     14 C5'         2.2816   -0.2918   -1.9206 C.3       1 ACP         0.2181
     15 C4'         2.7248    0.0226   -0.4980 C.3       1 ACP         0.0915
     16 O4'         2.4697    1.4219   -0.2462 O.3       1 ACP        -0.3675
     17 C3'         1.9404   -0.7419    0.5596 C.3       1 ACP         0.0748
     18 O3'         2.7418   -0.8086    1.7389 O.3       1 ACP        -0.5646
     19 C2'         0.7477    0.1630    0.7858 C.3       1 ACP         0.0804
     20 O2'         0.1373   -0.0577    2.0407 O.3       1 ACP        -0.5882
     21 C1'         1.3733    1.5427    0.6747 C.3       1 ACP         0.3809
     22 N9          0.4520    2.5240    0.1767 N.pl3     1 ACP        -0.4412
     23 C8         -1.0660    2.5608    0.3999 C.ar      1 ACP         0.1936
     24 N7         -1.5852    3.6333   -0.2221 N.2       1 ACP        -0.2746
     25 C5         -0.4682    4.1996   -0.7771 C.ar      1 ACP        -0.1386
     26 C6         -0.5216    5.4476   -1.5899 C.ar      1 ACP         0.4778
     27 N6         -1.6813    6.0510   -1.7982 N.pl3     1 ACP        -0.8290
     28 N1          0.6621    5.8575   -2.0523 N.pl3     1 ACP        -0.6985
     29 C2          1.8795    5.1301   -1.7717 C.ar      1 ACP         0.6179
     30 N3          1.9458    4.0434   -1.0670 N.ar      1 ACP        -0.5105
     31 C4          0.7388    3.6199   -0.5917 C.ar      1 ACP         0.2753
     32 HOG2        2.5827   -0.3227   -8.3437 H         1 ACP         0.4487
     33 HOG3        4.6888    1.5230   -8.9861 H         1 ACP         0.4487
     34 H3B1        6.1556    0.2136   -5.6813 H         1 ACP         0.1088
     35 H3B2        4.5306    0.8075   -5.3518 H         1 ACP         0.1088
     36 H5'1        2.8430    0.3138   -2.6391 H         1 ACP         0.0327
     37 H5'2        1.2126   -0.0907   -2.0421 H         1 ACP         0.0327
     38 H4'         3.8046   -0.1390   -0.4011 H         1 ACP         0.1275
     39 H3'         1.6787   -1.7627    0.2719 H         1 ACP         0.0637
     40 HO3'        2.2231   -1.2979    2.3952 H         1 ACP         0.4127
     41 H2'         0.0002   -0.0084   -0.0014 H         1 ACP         0.0692
     42 HO2'       -0.1554   -0.9852    2.0577 H         1 ACP         0.4431
     43 H1'         1.7718    1.9211    1.6015 H         1 ACP         0.1199
     44 H8         -1.7235    1.8833    0.9537 H         1 ACP         0.2941
     45 HN61       -2.5296    5.6672   -1.4072 H         1 ACP         0.4754
     46 HN62       -1.7205    6.8969   -2.3483 H         1 ACP         0.4754
     47 H2          2.7750    5.5878   -2.2190 H         1 ACP         0.0886
     48 H48         0.6808    6.7046   -2.6128 H         1 ACP         0.4707
@<TRIPOS>BOND
     1    1    2 2
     2    1    3 1
     3    1    4 1
     4    1    8 1
     5    3   32 1
     6    4   33 1
     7    5    6 2
     8    5    7 1
     9    5    8 1
    10    5   12 1
    11    8   34 1
    12    8   35 1
    13    9   10 2
    14    9   11 1
    15    9   12 1
    16    9   13 1
    17   13   14 1
    18   14   15 1
    19   14   36 1
    20   14   37 1
    21   15   16 1
    22   15   17 1
    23   15   38 1
    24   16   21 1
    25   17   18 1
    26   17   19 1
    27   17   39 1
    28   18   40 1
    29   19   20 1
    30   19   21 1
    31   19   41 1
    32   20   42 1
    33   21   22 1
    34   21   43 1
    35   22   23 ar
    36   22   31 ar
    37   23   24 ar
    38   23   44 1
    39   24   25 ar
    40   25   26 ar
    41   25   31 ar
    42   26   27 1
    43   26   28 ar
    44   27   45 1
    45   27   46 1
    46   28   29 ar
    47   28   48 1
    48   29   30 ar
    49   29   47 1
    50   30   31 ar
@<TRIPOS>SUBSTRUCTURE
     1 ACP         1 GROUP 0 A     ****
@<TRIPOS>MOLECULE
[[5-(6-amino-1,8-dihydropurine-6,8-diylium-7-id-9-yl)-3,4-dihydroxy-tetrahydrofuran-2-yl]methoxy-oxido-phosphoryl]oxy-(phosphonomethyl)phosphinate
   48    50     1     0     0
SMALL
USER_CHARGES

@<TRIPOS>ATOM
      1 PG         -0.7953   -0.9171   -7.1203 P.3       1 ACP         1.6558
      2 O1G        -2.0573   -1.7068   -7.2966 O.2       1 ACP        -0.9020
      3 O2G        -0.5007    0.1850   -8.2643 O.3       1 ACP        -0.8036
      4 O3G         0.5652   -1.7868   -7.0719 O.3       1 ACP        -0.8036
      5 PB          0.7207    1.1029   -5.1325 P.3       1 ACP         1.4945
      6 O1B         0.4053    1.7372   -3.7977 O.co2     1 ACP        -0.8481
      7 O2B         1.0836    1.9216   -6.3497 O.co2     1 ACP        -0.8481
      8 C3B        -0.7243    0.0436   -5.5914 C.3       1 ACP        -0.6636
      9 PA          3.3317   -0.0541   -4.3262 P.3       1 ACP         1.6023
     10 O1A         4.1267    0.9765   -5.0986 O.co2     1 ACP        -0.8673
     11 O2A         3.8308   -1.4772   -4.2013 O.co2     1 ACP        -0.8673
     12 O3A         1.8123   -0.0905   -4.9242 O.3       1 ACP        -0.8150
     13 O5'         3.0199    0.5139   -2.8245 O.3       1 ACP        -0.5522
     14 C5'         2.2816   -0.2918   -1.9206 C.3       1 ACP         0.2181
     15 C4'         2.7248    0.0226   -0.4980 C.3       1 ACP         0.0915
     16 O4'         2.4697    1.4219   -0.2462 O.3       1 ACP        -0.3675
     17 C3'         1.9404   -0.7419    0.5596 C.3       1 ACP         0.0748
     18 O3'         2.7418   -0.8086    1.7389 O.3       1 ACP        -0.5646
     19 C2'         0.7477    0.1630    0.7858 C.3       1 ACP         0.0804
     20 O2'         0.1373   -0.0577    2.0407 O.3       1 ACP        -0.5882
     21 C1'         1.3733    1.5427    0.6747 C.3       1 ACP         0.3809
     22 N9          0.4520    2.5240    0.1767 N.pl3     1 ACP        -0.4412
     23 C8         -0.7463    2.2774   -0.7501 C.ar      1 ACP         0.1936
     24 N7         -1.3714    3.4419   -0.9948 N.2       1 ACP        -0.2746
     25 C5         -0.6104    4.3223   -0.2723 C.ar      1 ACP        -0.1386
     26 C6         -0.9062    5.7820   -0.2194 C.ar      1 ACP         0.4778
     27 N6         -1.9385    6.2713   -0.8881 N.pl3     1 ACP        -0.8290
     28 N1         -0.0613    6.4906    0.5336 N.pl3     1 ACP        -0.6985
     29 C2          1.0416    5.8662    1.2291 C.ar      1 ACP         0.6179
     30 N3          1.3146    4.5989    1.1954 N.ar      1 ACP        -0.5105
     31 C4          0.4541    3.8697    0.4273 C.ar      1 ACP         0.2753
     32 HOG2       -0.4039   -0.1101   -9.1946 H         1 ACP         0.4487
     33 HOG3        0.8022   -2.3417   -7.8452 H         1 ACP         0.4487
     34 H3B1       -1.5938    0.7105   -5.5789 H         1 ACP         0.1088
     35 H3B2       -0.8520   -0.6631   -4.7635 H         1 ACP         0.1088
     36 H5'1        1.2154   -0.0780   -2.0455 H         1 ACP         0.0327
     37 H5'2        2.4646   -1.3453   -2.1548 H         1 ACP         0.0327
     38 H4'         3.8046   -0.1390   -0.4011 H         1 ACP         0.1275
     39 H3'         1.6787   -1.7627    0.2719 H         1 ACP         0.0637
     40 HO3'        2.2231   -1.2979    2.3952 H         1 ACP         0.4127
     41 H2'         0.0002   -0.0084   -0.0014 H         1 ACP         0.0692
     42 HO2'       -0.6132    0.5577    2.1063 H         1 ACP         0.4431
     43 H1'         1.7718    1.9211    1.6015 H         1 ACP         0.1199
     44 H8         -1.1244    1.3534   -1.1987 H         1 ACP         0.2941
     45 HN61       -2.5259    5.6573   -1.4336 H         1 ACP         0.4754
     46 HN62       -2.1416    7.2600   -0.8539 H         1 ACP         0.4754
     47 H2          1.6509    6.5764    1.8088 H         1 ACP         0.0886
     48 H48        -0.2190    7.4917    0.6033 H         1 ACP         0.4707
@<TRIPOS>BOND
     1    1    2 2
     2    1    3 1
     3    1    4 1
     4    1    8 1
     5    3   32 1
     6    4   33 1
     7    5    6 2
     8    5    7 1
     9    5    8 1
    10    5   12 1
    11    8   34 1
    12    8   35 1
    13    9   10 2
    14    9   11 1
    15    9   12 1
    16    9   13 1
    17   13   14 1
    18   14   15 1
    19   14   36 1
    20   14   37 1
    21   15   16 1
    22   15   17 1
    23   15   38 1
    24   16   21 1
    25   17   18 1
    26   17   19 1
    27   17   39 1
    28   18   40 1
    29   19   20 1
    30   19   21 1
    31   19   41 1
    32   20   42 1
    33   21   22 1
    34   21   43 1
    35   22   23 ar
    36   22   31 ar
    37   23   24 ar
    38   23   44 1
    39   24   25 ar
    40   25   26 ar
    41   25   31 ar
    42   26   27 1
    43   26   28 ar
    44   27   45 1
    45   27   46 1
    46   28   29 ar
    47   28   48 1
    48   29   30 ar
    49   29   47 1
    50   30   31 ar
@<TRIPOS>SUBSTRUCTURE
     1 ACP         1 GROUP 0 A     ****
@<TRIPOS>MOLECULE
[[5-(6-amino-1,8-dihydropurine-6,8-diylium-7-id-9-yl)-3,4-dihydroxy-tetrahydrofuran-2-yl]methoxy-oxido-phosphoryl]oxy-(phosphonomethyl)phosphinate
   48    50     1     0     0
SMALL
USER_CHARGES

@<TRIPOS>ATOM
      1 PG          4.3279    1.0356   -6.5475 P.3       1 ACP         1.6558
      2 O1G         4.6662    2.1516   -5.6055 O.2       1 ACP        -0.9020
      3 O2G         4.7490    1.2765   -8.0886 O.3       1 ACP        -0.8036
      4 O3G         2.7602    0.6560   -6.6374 O.3       1 ACP        -0.8036
      5 PB          4.8394   -1.4237   -4.5425 P.3       1 ACP         1.4945
      6 O1B         5.3024   -0.5001   -3.4396 O.co2     1 ACP        -0.8481
      7 O2B         5.3806   -2.8256   -4.7016 O.co2     1 ACP        -0.8481
      8 C3B         5.1112   -0.5426   -6.1458 C.3       1 ACP        -0.6636
      9 PA          2.1358   -2.2685   -3.6578 P.3       1 ACP         1.6023
     10 O1A         2.4845   -3.7405   -3.7033 O.co2     1 ACP        -0.8673
     11 O2A         0.7432   -1.7950   -4.0135 O.co2     1 ACP        -0.8673
     12 O3A         3.2094   -1.4534   -4.5800 O.3       1 ACP        -0.8150
     13 O5'         2.5238   -1.6632   -2.1888 O.3       1 ACP        -0.5522
     14 C5'         2.2816   -0.2918   -1.9206 C.3       1 ACP         0.2181
     15 C4'         2.7248    0.0226   -0.4980 C.3       1 ACP         0.0915
     16 O4'         2.4697    1.4219   -0.2462 O.3       1 ACP        -0.3675
     17 C3'         1.9404   -0.7419    0.5596 C.3       1 ACP         0.0748
     18 O3'         2.7418   -0.8086    1.7389 O.3       1 ACP        -0.5646
     19 C2'         0.7477    0.1630    0.7858 C.3       1 ACP         0.0804
     20 O2'         0.1373   -0.0577    2.0407 O.3       1 ACP        -0.5882
     21 C1'         1.3733    1.5427    0.6747 C.3       1 ACP         0.3809
     22 N9          0.4520    2.5240    0.1767 N.pl3     1 ACP        -0.4412
     23 C8         -0.7463    2.2774   -0.7501 C.ar      1 ACP         0.1936
     24 N7         -1.3714    3.4419   -0.9948 N.2       1 ACP        -0.2746
     25 C5         -0.6104    4.3223   -0.2723 C.ar      1 ACP        -0.1386
     26 C6         -0.9062    5.7820   -0.2194 C.ar      1 ACP         0.4778
     27 N6         -1.9385    6.2713   -0.8881 N.pl3     1 ACP        -0.8290
     28 N1         -0.0613    6.4906    0.5336 N.pl3     1 ACP        -0.6985
     29 C2          1.0416    5.8662    1.2291 C.ar      1 ACP         0.6179
     30 N3          1.3146    4.5989    1.1954 N.ar      1 ACP        -0.5105
     31 C4          0.4541    3.8697    0.4273 C.ar      1 ACP         0.2753
     32 HOG2        4.3718    2.0434   -8.5698 H         1 ACP         0.4487
     33 HOG3        2.1213    1.3414   -6.9274 H         1 ACP         0.4487
     34 H3B1        4.8314   -1.2591   -6.9263 H         1 ACP         0.1088
     35 H3B2        6.1938   -0.3913   -6.2242 H         1 ACP         0.1088
     36 H5'1        2.8430    0.3138   -2.6391 H         1 ACP         0.0327
     37 H5'2        1.2126   -0.0907   -2.0421 H         1 ACP         0.0327
     38 H4'         3.8046   -0.1390   -0.4011 H         1 ACP         0.1275
     39 H3'         1.6787   -1.7627    0.2719 H         1 ACP         0.0637
     40 HO3'        2.2231   -1.2979    2.3952 H         1 ACP         0.4127
     41 H2'         0.0002   -0.0084   -0.0014 H         1 ACP         0.0692
     42 HO2'       -0.6132    0.5577    2.1063 H         1 ACP         0.4431
     43 H1'         1.7718    1.9211    1.6015 H         1 ACP         0.1199
     44 H8         -1.1244    1.3534   -1.1987 H         1 ACP         0.2941
     45 HN61       -2.5259    5.6573   -1.4336 H         1 ACP         0.4754
     46 HN62       -2.1416    7.2600   -0.8539 H         1 ACP         0.4754
     47 H2          1.6509    6.5764    1.8088 H         1 ACP         0.0886
     48 H48        -0.2190    7.4917    0.6033 H         1 ACP         0.4707
@<TRIPOS>BOND
     1    1    2 2
     2    1    3 1
     3    1    4 1
     4    1    8 1
     5    3   32 1
     6    4   33 1
     7    5    6 2
     8    5    7 1
     9    5    8 1
    10    5   12 1
    11    8   34 1
    12    8   35 1
    13    9   10 2
    14    9   11 1
    15    9   12 1
    16    9   13 1
    17   13   14 1
    18   14   15 1
    19   14   36 1
    20   14   37 1
    21   15   16 1
    22   15   17 1
    23   15   38 1
    24   16   21 1
    25   17   18 1
    26   17   19 1
    27   17   39 1
    28   18   40 1
    29   19   20 1
    30   19   21 1
    31   19   41 1
    32   20   42 1
    33   21   22 1
    34   21   43 1
    35   22   23 ar
    36   22   31 ar
    37   23   24 ar
    38   23   44 1
    39   24   25 ar
    40   25   26 ar
    41   25   31 ar
    42   26   27 1
    43   26   28 ar
    44   27   45 1
    45   27   46 1
    46   28   29 ar
    47   28   48 1
    48   29   30 ar
    49   29   47 1
    50   30   31 ar
@<TRIPOS>SUBSTRUCTURE
     1 ACP         1 GROUP 0 A     ****
@<TRIPOS>MOLECULE
[[5-(6-amino-1,8-dihydropurine-6,8-diylium-7-id-9-yl)-3,4-dihydroxy-tetrahydrofuran-2-yl]methoxy-oxido-phosphoryl]oxy-(phosphonomethyl)phosphinate
   48    50     1     0     0
SMALL
USER_CHARGES

@<TRIPOS>ATOM
      1 PG         -1.1007   -9.5798    4.3290 P.3       1 ACP         1.6558
      2 O1G        -0.2498  -10.2415    5.3708 O.2       1 ACP        -0.9020
      3 O2G        -2.2643   -8.6125    4.8951 O.3       1 ACP        -0.8036
      4 O3G        -1.8898  -10.5834    3.3391 O.3       1 ACP        -0.8036
      5 PB          0.7813   -7.0396    3.7499 P.3       1 ACP         1.4945
      6 O1B         1.3910   -6.4114    2.5182 O.co2     1 ACP        -0.8481
      7 O2B         1.6164   -7.4737    4.9322 O.co2     1 ACP        -0.8481
      8 C3B        -0.1903   -8.5109    3.1913 C.3       1 ACP        -0.6636
      9 PA         -0.5283   -4.5720    4.7510 P.3       1 ACP         1.6023
     10 O1A         0.4835   -4.3793    5.8599 O.co2     1 ACP        -0.8673
     11 O2A        -1.9777   -4.1878    4.9548 O.co2     1 ACP        -0.8673
     12 O3A        -0.4709   -6.1295    4.2627 O.3       1 ACP        -0.8150
     13 O5'         0.0100   -3.8402    3.3910 O.3       1 ACP        -0.5522
     14 C5'        -0.7840   -3.8935    2.2172 C.3       1 ACP         0.2181
     15 C4'        -0.0724   -3.1466    1.1027 C.3       1 ACP         0.0915
     16 O4'        -0.8674   -3.1929   -0.0945 O.3       1 ACP        -0.3675
     17 C3'         0.1338   -1.6715    1.4027 C.3       1 ACP         0.0748
     18 O3'         1.2893   -1.4445    2.1808 O.3       1 ACP        -0.5646
     19 C2'         0.2158   -1.0724    0.0128 C.3       1 ACP         0.0804
     20 O2'         1.5141   -1.2448   -0.5513 O.3       1 ACP        -0.5882
     21 C1'        -0.7897   -1.9176   -0.7583 C.3       1 ACP         0.3809
     22 N9         -2.1040   -1.3333   -0.7704 N.pl3     1 ACP        -0.4412
     23 C8         -3.2124   -1.5345    0.2719 C.ar      1 ACP         0.1936
     24 N7         -4.2964   -0.8234   -0.0828 N.2       1 ACP        -0.2746
     25 C5         -3.8754   -0.2386   -1.2478 C.ar      1 ACP        -0.1386
     26 C6         -4.7432    0.6719   -2.0470 C.ar      1 ACP         0.4778
     27 N6         -5.9725    0.9415   -1.6366 N.pl3     1 ACP        -0.8290
     28 N1         -4.1703    1.1517   -3.1536 N.pl3     1 ACP        -0.6985
     29 C2         -2.8174    0.7994   -3.5215 C.ar      1 ACP         0.6179
     30 N3         -2.0475    0.0097   -2.8393 N.ar      1 ACP        -0.5105
     31 C4         -2.6278   -0.4836   -1.7071 C.ar      1 ACP         0.2753
     32 HOG2       -2.9535   -8.9911    5.4814 H         1 ACP         0.4487
     33 HOG3       -2.5294  -11.2216    3.7206 H         1 ACP         0.4487
     34 H3B1        0.5187   -9.1403    2.6417 H         1 ACP         0.1088
     35 H3B2       -0.9138   -8.1318    2.4607 H         1 ACP         0.1088
     36 H5'1       -0.9357   -4.9414    1.9397 H         1 ACP         0.0327
     37 H5'2       -1.7557   -3.4349    2.4259 H         1 ACP         0.0327
     38 H4'         0.8883   -3.6447    0.8783 H         1 ACP         0.1275
     39 H3'        -0.7368   -1.2359    1.9871 H         1 ACP         0.0637
     40 HO3'        1.1625   -1.9325    3.0084 H         1 ACP         0.4127
     41 H2'        -0.0343   -0.0280    0.0196 H         1 ACP         0.0692
     42 HO2'        2.1443   -0.7955    0.0378 H         1 ACP         0.4431
     43 H1'        -0.5175   -2.1046   -1.7826 H         1 ACP         0.1199
     44 H8         -3.2310   -2.1319    1.1889 H         1 ACP         0.2941
     45 HN61       -6.3230    0.5316   -0.7829 H         1 ACP         0.4754
     46 HN62       -6.5628    1.5584   -2.1760 H         1 ACP         0.4754
     47 H2         -2.4822    1.2710   -4.4579 H         1 ACP         0.0886
     48 H48        -4.7200    1.7780   -3.7346 H         1 ACP         0.4707
@<TRIPOS>BOND
     1    1    2 2
     2    1    3 1
     3    1    4 1
     4    1    8 1
     5    3   32 1
     6    4   33 1
     7    5    6 2
     8    5    7 1
     9    5    8 1
    10    5   12 1
    11    8   34 1
    12    8   35 1
    13    9   10 2
    14    9   11 1
    15    9   12 1
    16    9   13 1
    17   13   14 1
    18   14   15 1
    19   14   36 1
    20   14   37 1
    21   15   16 1
    22   15   17 1
    23   15   38 1
    24   16   21 1
    25   17   18 1
    26   17   19 1
    27   17   39 1
    28   18   40 1
    29   19   20 1
    30   19   21 1
    31   19   41 1
    32   20   42 1
    33   21   22 1
    34   21   43 1
    35   22   23 ar
    36   22   31 ar
    37   23   24 ar
    38   23   44 1
    39   24   25 ar
    40   25   26 ar
    41   25   31 ar
    42   26   27 1
    43   26   28 ar
    44   27   45 1
    45   27   46 1
    46   28   29 ar
    47   28   48 1
    48   29   30 ar
    49   29   47 1
    50   30   31 ar
@<TRIPOS>SUBSTRUCTURE
     1 ACP         1 GROUP 0 A     ****
@<TRIPOS>MOLECULE
[[5-(6-amino-1,8-dihydropurine-6,8-diylium-7-id-9-yl)-3,4-dihydroxy-tetrahydrofuran-2-yl]methoxy-oxido-phosphoryl]oxy-(phosphonomethyl)phosphinate
   48    50     1     0     0
SMALL
USER_CHARGES

@<TRIPOS>ATOM
      1 PG          0.6783   -3.7648   -5.6085 P.3       1 ACP         1.6558
      2 O1G        -0.2581   -2.7095   -5.1016 O.2       1 ACP        -0.9020
      3 O2G         0.1191   -4.6590   -6.8324 O.3       1 ACP        -0.8036
      4 O3G         1.1412   -4.8624   -4.5172 O.3       1 ACP        -0.8036
      5 PB          3.4336   -2.1594   -5.2075 P.3       1 ACP         1.4945
      6 O1B         4.6123   -1.8099   -6.0862 O.co2     1 ACP        -0.8481
      7 O2B         3.5937   -2.8956   -3.8975 O.co2     1 ACP        -0.8481
      8 C3B         2.2460   -3.1283   -6.2428 C.3       1 ACP        -0.6636
      9 PA          2.8587    0.6155   -4.3269 P.3       1 ACP         1.6023
     10 O1A         1.5848    1.4289   -4.2490 O.co2     1 ACP        -0.8673
     11 O2A         4.0862    1.1698   -5.0168 O.co2     1 ACP        -0.8673
     12 O3A         2.5065   -0.8361   -4.9876 O.3       1 ACP        -0.8150
     13 O5'         3.2885    0.1337   -2.8242 O.3       1 ACP        -0.5522
     14 C5'         2.2816   -0.2918   -1.9206 C.3       1 ACP         0.2181
     15 C4'         2.7248    0.0226   -0.4980 C.3       1 ACP         0.0915
     16 O4'         2.4697    1.4219   -0.2462 O.3       1 ACP        -0.3675
     17 C3'         1.9404   -0.7419    0.5596 C.3       1 ACP         0.0748
     18 O3'         2.7418   -0.8086    1.7389 O.3       1 ACP        -0.5646
     19 C2'         0.7477    0.1630    0.7858 C.3       1 ACP         0.0804
     20 O2'         0.1373   -0.0577    2.0407 O.3       1 ACP        -0.5882
     21 C1'         1.3733    1.5427    0.6747 C.3       1 ACP         0.3809
     22 N9          0.4520    2.5240    0.1767 N.pl3     1 ACP        -0.4412
     23 C8         -0.3054    2.4845   -1.1576 C.ar      1 ACP         0.1936
     24 N7         -1.0755    3.5806   -1.2691 N.2       1 ACP        -0.2746
     25 C5         -0.8043    4.2306   -0.0942 C.ar      1 ACP        -0.1386
     26 C6         -1.4324    5.5335    0.2646 C.ar      1 ACP         0.4778
     27 N6         -2.2885    6.1054   -0.5675 N.pl3     1 ACP        -0.8290
     28 N1         -1.0537    6.0229    1.4478 N.pl3     1 ACP        -0.6985
     29 C2         -0.1096    5.3242    2.2908 C.ar      1 ACP         0.6179
     30 N3          0.4468    4.1904    1.9960 N.ar      1 ACP        -0.5105
     31 C4          0.0631    3.6855    0.7877 C.ar      1 ACP         0.2753
     32 HOG2       -0.6976   -5.1861   -6.7013 H         1 ACP         0.4487
     33 HOG3        0.4591   -5.4160   -4.0812 H         1 ACP         0.4487
     34 H3B1        2.8180   -3.9804   -6.6271 H         1 ACP         0.1088
     35 H3B2        2.0081   -2.4901   -7.1014 H         1 ACP         0.1088
     36 H5'1        1.3501    0.2325   -2.1561 H         1 ACP         0.0327
     37 H5'2        2.1268   -1.3683   -2.0445 H         1 ACP         0.0327
     38 H4'         3.8046   -0.1390   -0.4011 H         1 ACP         0.1275
     39 H3'         1.6787   -1.7627    0.2719 H         1 ACP         0.0637
     40 HO3'        2.9082    0.1071    2.0091 H         1 ACP         0.4127
     41 H2'         0.0002   -0.0084   -0.0014 H         1 ACP         0.0692
     42 HO2'       -0.1554   -0.9852    2.0577 H         1 ACP         0.4431
     43 H1'         1.7718    1.9211    1.6015 H         1 ACP         0.1199
     44 H8         -0.2991    1.7413   -1.9611 H         1 ACP         0.2941
     45 HN61       -2.5167    5.6603   -1.4447 H         1 ACP         0.4754
     46 HN62       -2.7159    6.9882   -0.3270 H         1 ACP         0.4754
     47 H2          0.1059    5.8491    3.2340 H         1 ACP         0.0886
     48 H48        -1.4532    6.9099    1.7401 H         1 ACP         0.4707
@<TRIPOS>BOND
     1    1    2 2
     2    1    3 1
     3    1    4 1
     4    1    8 1
     5    3   32 1
     6    4   33 1
     7    5    6 2
     8    5    7 1
     9    5    8 1
    10    5   12 1
    11    8   34 1
    12    8   35 1
    13    9   10 2
    14    9   11 1
    15    9   12 1
    16    9   13 1
    17   13   14 1
    18   14   15 1
    19   14   36 1
    20   14   37 1
    21   15   16 1
    22   15   17 1
    23   15   38 1
    24   16   21 1
    25   17   18 1
    26   17   19 1
    27   17   39 1
    28   18   40 1
    29   19   20 1
    30   19   21 1
    31   19   41 1
    32   20   42 1
    33   21   22 1
    34   21   43 1
    35   22   23 ar
    36   22   31 ar
    37   23   24 ar
    38   23   44 1
    39   24   25 ar
    40   25   26 ar
    41   25   31 ar
    42   26   27 1
    43   26   28 ar
    44   27   45 1
    45   27   46 1
    46   28   29 ar
    47   28   48 1
    48   29   30 ar
    49   29   47 1
    50   30   31 ar
@<TRIPOS>SUBSTRUCTURE
     1 ACP         1 GROUP 0 A     ****
@<TRIPOS>MOLECULE
[[5-(6-amino-1,8-dihydropurine-6,8-diylium-7-id-9-yl)-3,4-dihydroxy-tetrahydrofuran-2-yl]methoxy-oxido-phosphoryl]oxy-(phosphonomethyl)phosphinate
   48    50     1     0     0
SMALL
USER_CHARGES

@<TRIPOS>ATOM
      1 PG          1.4469   -3.6888   -5.0705 P.3       1 ACP         1.6558
      2 O1G         1.8860   -3.2868   -3.6947 O.2       1 ACP        -0.9020
      3 O2G        -0.1421   -3.5947   -5.3471 O.3       1 ACP        -0.8036
      4 O3G         1.8184   -5.2004   -5.5024 O.3       1 ACP        -0.8036
      5 PB          1.9073   -0.8666   -6.5380 P.3       1 ACP         1.4945
      6 O1B         0.4206   -0.6270   -6.6641 O.co2     1 ACP        -0.8481
      7 O2B         2.8972   -0.3512   -7.5569 O.co2     1 ACP        -0.8481
      8 C3B         2.1586   -2.6939   -6.4007 C.3       1 ACP        -0.6636
      9 PA          2.3308    0.9611   -4.2388 P.3       1 ACP         1.6023
     10 O1A         0.8771    1.3091   -4.0021 O.co2     1 ACP        -0.8673
     11 O2A         3.2554    1.9407   -4.9284 O.co2     1 ACP        -0.8673
     12 O3A         2.3991   -0.4624   -5.0367 O.3       1 ACP        -0.8150
     13 O5'         3.0199    0.5139   -2.8245 O.3       1 ACP        -0.5522
     14 C5'         2.2816   -0.2918   -1.9206 C.3       1 ACP         0.2181
     15 C4'         2.7248    0.0226   -0.4980 C.3       1 ACP         0.0915
     16 O4'         2.4697    1.4219   -0.2462 O.3       1 ACP        -0.3675
     17 C3'         1.9404   -0.7419    0.5596 C.3       1 ACP         0.0748
     18 O3'         2.7418   -0.8086    1.7389 O.3       1 ACP        -0.5646
     19 C2'         0.7477    0.1630    0.7858 C.3       1 ACP         0.0804
     20 O2'         0.1373   -0.0577    2.0407 O.3       1 ACP        -0.5882
     21 C1'         1.3733    1.5427    0.6747 C.3       1 ACP         0.3809
     22 N9          0.4520    2.5240    0.1767 N.pl3     1 ACP        -0.4412
     23 C8         -0.7463    2.2774   -0.7501 C.ar      1 ACP         0.1936
     24 N7         -1.3714    3.4419   -0.9948 N.2       1 ACP        -0.2746
     25 C5         -0.6104    4.3223   -0.2723 C.ar      1 ACP        -0.1386
     26 C6         -0.9062    5.7820   -0.2194 C.ar      1 ACP         0.4778
     27 N6         -1.9385    6.2713   -0.8881 N.pl3     1 ACP        -0.8290
     28 N1         -0.0613    6.4906    0.5336 N.pl3     1 ACP        -0.6985
     29 C2          1.0416    5.8662    1.2291 C.ar      1 ACP         0.6179
     30 N3          1.3146    4.5989    1.1954 N.ar      1 ACP        -0.5105
     31 C4          0.4541    3.8697    0.4273 C.ar      1 ACP         0.2753
     32 HOG2       -0.7526   -4.1293   -4.7962 H         1 ACP         0.4487
     33 HOG3        1.4661   -5.9464   -4.9719 H         1 ACP         0.4487
     34 H3B1        3.2443   -2.8408   -6.3794 H         1 ACP         0.1088
     35 H3B2        1.7975   -3.1172   -7.3449 H         1 ACP         0.1088
     36 H5'1        1.2154   -0.0780   -2.0455 H         1 ACP         0.0327
     37 H5'2        2.4646   -1.3453   -2.1548 H         1 ACP         0.0327
     38 H4'         3.8046   -0.1390   -0.4011 H         1 ACP         0.1275
     39 H3'         1.6787   -1.7627    0.2719 H         1 ACP         0.0637
     40 HO3'        2.2231   -1.2979    2.3952 H         1 ACP         0.4127
     41 H2'         0.0002   -0.0084   -0.0014 H         1 ACP         0.0692
     42 HO2'       -0.6132    0.5577    2.1063 H         1 ACP         0.4431
     43 H1'         1.7718    1.9211    1.6015 H         1 ACP         0.1199
     44 H8         -1.1244    1.3534   -1.1987 H         1 ACP         0.2941
     45 HN61       -2.5259    5.6573   -1.4336 H         1 ACP         0.4754
     46 HN62       -2.1416    7.2600   -0.8539 H         1 ACP         0.4754
     47 H2          1.6509    6.5764    1.8088 H         1 ACP         0.0886
     48 H48        -0.2190    7.4917    0.6033 H         1 ACP         0.4707
@<TRIPOS>BOND
     1    1    2 2
     2    1    3 1
     3    1    4 1
     4    1    8 1
     5    3   32 1
     6    4   33 1
     7    5    6 2
     8    5    7 1
     9    5    8 1
    10    5   12 1
    11    8   34 1
    12    8   35 1
    13    9   10 2
    14    9   11 1
    15    9   12 1
    16    9   13 1
    17   13   14 1
    18   14   15 1
    19   14   36 1
    20   14   37 1
    21   15   16 1
    22   15   17 1
    23   15   38 1
    24   16   21 1
    25   17   18 1
    26   17   19 1
    27   17   39 1
    28   18   40 1
    29   19   20 1
    30   19   21 1
    31   19   41 1
    32   20   42 1
    33   21   22 1
    34   21   43 1
    35   22   23 ar
    36   22   31 ar
    37   23   24 ar
    38   23   44 1
    39   24   25 ar
    40   25   26 ar
    41   25   31 ar
    42   26   27 1
    43   26   28 ar
    44   27   45 1
    45   27   46 1
    46   28   29 ar
    47   28   48 1
    48   29   30 ar
    49   29   47 1
    50   30   31 ar
@<TRIPOS>SUBSTRUCTURE
     1 ACP         1 GROUP 0 A     ****
@<TRIPOS>MOLECULE
[[5-(6-amino-1,8-dihydropurine-6,8-diylium-7-id-9-yl)-3,4-dihydroxy-tetrahydrofuran-2-yl]methoxy-oxido-phosphoryl]oxy-(phosphonomethyl)phosphinate
   48    50     1     0     0
SMALL
USER_CHARGES

@<TRIPOS>ATOM
      1 PG          1.3897   -2.8563   -7.1738 P.3       1 ACP         1.6558
      2 O1G         0.2378   -1.9767   -6.7910 O.2       1 ACP        -0.9020
      3 O2G         2.1416   -2.4568   -8.5468 O.3       1 ACP        -0.8036
      4 O3G         1.0308   -4.4181   -7.3783 O.3       1 ACP        -0.8036
      5 PB          3.6739   -1.3905   -5.4523 P.3       1 ACP         1.4945
      6 O1B         4.3253   -0.8269   -6.6940 O.co2     1 ACP        -0.8481
      7 O2B         4.4672   -1.7527   -4.2182 O.co2     1 ACP        -0.8481
      8 C3B         2.7311   -2.8973   -5.9636 C.3       1 ACP        -0.6636
      9 PA          2.3308    0.9611   -4.2388 P.3       1 ACP         1.6023
     10 O1A         0.8771    1.3091   -4.0021 O.co2     1 ACP        -0.8673
     11 O2A         3.2554    1.9407   -4.9284 O.co2     1 ACP        -0.8673
     12 O3A         2.3991   -0.4624   -5.0367 O.3       1 ACP        -0.8150
     13 O5'         3.0199    0.5139   -2.8245 O.3       1 ACP        -0.5522
     14 C5'         2.2816   -0.2918   -1.9206 C.3       1 ACP         0.2181
     15 C4'         2.7248    0.0226   -0.4980 C.3       1 ACP         0.0915
     16 O4'         2.4697    1.4219   -0.2462 O.3       1 ACP        -0.3675
     17 C3'         1.9404   -0.7419    0.5596 C.3       1 ACP         0.0748
     18 O3'         2.7418   -0.8086    1.7389 O.3       1 ACP        -0.5646
     19 C2'         0.7477    0.1630    0.7858 C.3       1 ACP         0.0804
     20 O2'         0.1373   -0.0577    2.0407 O.3       1 ACP        -0.5882
     21 C1'         1.3733    1.5427    0.6747 C.3       1 ACP         0.3809
     22 N9          0.4520    2.5240    0.1767 N.pl3     1 ACP        -0.4412
     23 C8         -0.7463    2.2774   -0.7501 C.ar      1 ACP         0.1936
     24 N7         -1.3714    3.4419   -0.9948 N.2       1 ACP        -0.2746
     25 C5         -0.6104    4.3223   -0.2723 C.ar      1 ACP        -0.1386
     26 C6         -0.9062    5.7820   -0.2194 C.ar      1 ACP         0.4778
     27 N6         -1.9385    6.2713   -0.8881 N.pl3     1 ACP        -0.8290
     28 N1         -0.0613    6.4906    0.5336 N.pl3     1 ACP        -0.6985
     29 C2          1.0416    5.8662    1.2291 C.ar      1 ACP         0.6179
     30 N3          1.3146    4.5989    1.1954 N.ar      1 ACP        -0.5105
     31 C4          0.4541    3.8697    0.4273 C.ar      1 ACP         0.2753
     32 HOG2        1.6303   -2.4496   -9.3838 H         1 ACP         0.4487
     33 HOG3        0.3730   -4.6690   -8.0613 H         1 ACP         0.4487
     34 H3B1        2.3278   -3.3205   -5.0367 H         1 ACP         0.1088
     35 H3B2        3.4789   -3.6050   -6.3390 H         1 ACP         0.1088
     36 H5'1        1.2154   -0.0780   -2.0455 H         1 ACP         0.0327
     37 H5'2        2.4646   -1.3453   -2.1548 H         1 ACP         0.0327
     38 H4'         3.8046   -0.1390   -0.4011 H         1 ACP         0.1275
     39 H3'         1.6787   -1.7627    0.2719 H         1 ACP         0.0637
     40 HO3'        2.2231   -1.2979    2.3952 H         1 ACP         0.4127
     41 H2'         0.0002   -0.0084   -0.0014 H         1 ACP         0.0692
     42 HO2'       -0.1554   -0.9852    2.0577 H         1 ACP         0.4431
     43 H1'         1.7718    1.9211    1.6015 H         1 ACP         0.1199
     44 H8         -1.1244    1.3534   -1.1987 H         1 ACP         0.2941
     45 HN61       -2.5259    5.6573   -1.4336 H         1 ACP         0.4754
     46 HN62       -2.1416    7.2600   -0.8539 H         1 ACP         0.4754
     47 H2          1.6509    6.5764    1.8088 H         1 ACP         0.0886
     48 H48        -0.2190    7.4917    0.6033 H         1 ACP         0.4707
@<TRIPOS>BOND
     1    1    2 2
     2    1    3 1
     3    1    4 1
     4    1    8 1
     5    3   32 1
     6    4   33 1
     7    5    6 2
     8    5    7 1
     9    5    8 1
    10    5   12 1
    11    8   34 1
    12    8   35 1
    13    9   10 2
    14    9   11 1
    15    9   12 1
    16    9   13 1
    17   13   14 1
    18   14   15 1
    19   14   36 1
    20   14   37 1
    21   15   16 1
    22   15   17 1
    23   15   38 1
    24   16   21 1
    25   17   18 1
    26   17   19 1
    27   17   39 1
    28   18   40 1
    29   19   20 1
    30   19   21 1
    31   19   41 1
    32   20   42 1
    33   21   22 1
    34   21   43 1
    35   22   23 ar
    36   22   31 ar
    37   23   24 ar
    38   23   44 1
    39   24   25 ar
    40   25   26 ar
    41   25   31 ar
    42   26   27 1
    43   26   28 ar
    44   27   45 1
    45   27   46 1
    46   28   29 ar
    47   28   48 1
    48   29   30 ar
    49   29   47 1
    50   30   31 ar
@<TRIPOS>SUBSTRUCTURE
     1 ACP         1 GROUP 0 A     ****
@<TRIPOS>MOLECULE
[[5-(6-amino-1,8-dihydropurine-6,8-diylium-7-id-9-yl)-3,4-dihydroxy-tetrahydrofuran-2-yl]methoxy-oxido-phosphoryl]oxy-(phosphonomethyl)phosphinate
   48    50     1     0     0
SMALL
USER_CHARGES

@<TRIPOS>ATOM
      1 PG         -0.5994   -2.9352   -6.9697 P.3       1 ACP         1.6558
      2 O1G        -1.0920   -3.7647   -5.8222 O.2       1 ACP        -0.9020
      3 O2G        -1.7484   -2.3162   -7.9221 O.3       1 ACP        -0.8036
      4 O3G         0.3815   -3.6957   -8.0036 O.3       1 ACP        -0.8036
      5 PB          1.9300   -1.5939   -5.5093 P.3       1 ACP         1.4945
      6 O1B         2.4292   -0.1826   -5.3032 O.co2     1 ACP        -0.8481
      7 O2B         2.7820   -2.6663   -6.1478 O.co2     1 ACP        -0.8481
      8 C3B         0.3611   -1.4841   -6.4826 C.3       1 ACP        -0.6636
      9 PA          2.0041   -2.7664   -2.7842 P.3       1 ACP         1.6023
     10 O1A         2.9046   -3.9080   -3.2043 O.co2     1 ACP        -0.8673
     11 O2A         0.9439   -2.9710   -1.7241 O.co2     1 ACP        -0.8673
     12 O3A         1.2886   -2.1536   -4.1184 O.3       1 ACP        -0.8150
     13 O5'         2.9203   -1.4822   -2.3523 O.3       1 ACP        -0.5522
     14 C5'         2.2816   -0.2918   -1.9206 C.3       1 ACP         0.2181
     15 C4'         2.7248    0.0226   -0.4980 C.3       1 ACP         0.0915
     16 O4'         2.4697    1.4219   -0.2462 O.3       1 ACP        -0.3675
     17 C3'         1.9404   -0.7419    0.5596 C.3       1 ACP         0.0748
     18 O3'         2.7418   -0.8086    1.7389 O.3       1 ACP        -0.5646
     19 C2'         0.7477    0.1630    0.7858 C.3       1 ACP         0.0804
     20 O2'         0.1373   -0.0577    2.0407 O.3       1 ACP        -0.5882
     21 C1'         1.3733    1.5427    0.6747 C.3       1 ACP         0.3809
     22 N9          0.4520    2.5240    0.1767 N.pl3     1 ACP        -0.4412
     23 C8          0.1798    2.8712   -1.2933 C.ar      1 ACP         0.1936
     24 N7         -0.7494    3.8400   -1.3610 N.2       1 ACP        -0.2746
     25 C5         -1.0173    4.0603   -0.0358 C.ar      1 ACP        -0.1386
     26 C6         -2.0105    5.0717    0.4241 C.ar      1 ACP         0.4778
     27 N6         -2.6723    5.7982   -0.4628 N.pl3     1 ACP        -0.8290
     28 N1         -2.1445    5.1522    1.7502 N.pl3     1 ACP        -0.6985
     29 C2         -1.3755    4.3143    2.6426 C.ar      1 ACP         0.6179
     30 N3         -0.5075    3.4292    2.2616 N.ar      1 ACP        -0.5105
     31 C4         -0.3667    3.3425    0.9070 C.ar      1 ACP         0.2753
     32 HOG2       -2.3604   -2.9263   -8.3862 H         1 ACP         0.4487
     33 HOG3        0.0499   -4.4875   -8.4782 H         1 ACP         0.4487
     34 H3B1        0.6192   -0.9362   -7.3958 H         1 ACP         0.1088
     35 H3B2       -0.3071   -0.8388   -5.9010 H         1 ACP         0.1088
     36 H5'1        2.5581    0.5234   -2.5967 H         1 ACP         0.0327
     37 H5'2        1.1975   -0.4371   -1.9608 H         1 ACP         0.0327
     38 H4'         3.8046   -0.1390   -0.4011 H         1 ACP         0.1275
     39 H3'         1.6787   -1.7627    0.2719 H         1 ACP         0.0637
     40 HO3'        2.2231   -1.2979    2.3952 H         1 ACP         0.4127
     41 H2'         0.0002   -0.0084   -0.0014 H         1 ACP         0.0692
     42 HO2'       -0.1554   -0.9852    2.0577 H         1 ACP         0.4431
     43 H1'         1.7718    1.9211    1.6015 H         1 ACP         0.1199
     44 H8          0.6089    2.4651   -2.2147 H         1 ACP         0.2941
     45 HN61       -2.5055    5.6680   -1.4503 H         1 ACP         0.4754
     46 HN62       -3.3462    6.4841   -0.1542 H         1 ACP         0.4754
     47 H2         -1.5932    4.4937    3.7066 H         1 ACP         0.0886
     48 H48        -2.8098    5.8270    2.1160 H         1 ACP         0.4707
@<TRIPOS>BOND
     1    1    2 2
     2    1    3 1
     3    1    4 1
     4    1    8 1
     5    3   32 1
     6    4   33 1
     7    5    6 2
     8    5    7 1
     9    5    8 1
    10    5   12 1
    11    8   34 1
    12    8   35 1
    13    9   10 2
    14    9   11 1
    15    9   12 1
    16    9   13 1
    17   13   14 1
    18   14   15 1
    19   14   36 1
    20   14   37 1
    21   15   16 1
    22   15   17 1
    23   15   38 1
    24   16   21 1
    25   17   18 1
    26   17   19 1
    27   17   39 1
    28   18   40 1
    29   19   20 1
    30   19   21 1
    31   19   41 1
    32   20   42 1
    33   21   22 1
    34   21   43 1
    35   22   23 ar
    36   22   31 ar
    37   23   24 ar
    38   23   44 1
    39   24   25 ar
    40   25   26 ar
    41   25   31 ar
    42   26   27 1
    43   26   28 ar
    44   27   45 1
    45   27   46 1
    46   28   29 ar
    47   28   48 1
    48   29   30 ar
    49   29   47 1
    50   30   31 ar
@<TRIPOS>SUBSTRUCTURE
     1 ACP         1 GROUP 0 A     ****
@<TRIPOS>MOLECULE
[[5-(6-amino-1,8-dihydropurine-6,8-diylium-7-id-9-yl)-3,4-dihydroxy-tetrahydrofuran-2-yl]methoxy-oxido-phosphoryl]oxy-(phosphonomethyl)phosphinate
   48    50     1     0     0
SMALL
USER_CHARGES

@<TRIPOS>ATOM
      1 PG          4.7008   -1.2670   -7.7497 P.3       1 ACP         1.6558
      2 O1G         5.0012   -0.3831   -8.9227 O.2       1 ACP        -0.9020
      3 O2G         5.4819   -2.6811   -7.7282 O.3       1 ACP        -0.8036
      4 O3G         3.1504   -1.6872   -7.5778 O.3       1 ACP        -0.8036
      5 PB          4.8394   -1.4237   -4.5425 P.3       1 ACP         1.4945
      6 O1B         5.3024   -0.5001   -3.4396 O.co2     1 ACP        -0.8481
      7 O2B         5.3806   -2.8256   -4.7016 O.co2     1 ACP        -0.8481
      8 C3B         5.1112   -0.5426   -6.1458 C.3       1 ACP        -0.6636
      9 PA          2.1358   -2.2685   -3.6578 P.3       1 ACP         1.6023
     10 O1A         2.4845   -3.7405   -3.7033 O.co2     1 ACP        -0.8673
     11 O2A         0.7432   -1.7950   -4.0135 O.co2     1 ACP        -0.8673
     12 O3A         3.2094   -1.4534   -4.5800 O.3       1 ACP        -0.8150
     13 O5'         2.5238   -1.6632   -2.1888 O.3       1 ACP        -0.5522
     14 C5'         2.2816   -0.2918   -1.9206 C.3       1 ACP         0.2181
     15 C4'         2.7248    0.0226   -0.4980 C.3       1 ACP         0.0915
     16 O4'         2.4697    1.4219   -0.2462 O.3       1 ACP        -0.3675
     17 C3'         1.9404   -0.7419    0.5596 C.3       1 ACP         0.0748
     18 O3'         2.7418   -0.8086    1.7389 O.3       1 ACP        -0.5646
     19 C2'         0.7477    0.1630    0.7858 C.3       1 ACP         0.0804
     20 O2'         0.1373   -0.0577    2.0407 O.3       1 ACP        -0.5882
     21 C1'         1.3733    1.5427    0.6747 C.3       1 ACP         0.3809
     22 N9          0.4520    2.5240    0.1767 N.pl3     1 ACP        -0.4412
     23 C8         -0.7463    2.2774   -0.7501 C.ar      1 ACP         0.1936
     24 N7         -1.3714    3.4419   -0.9948 N.2       1 ACP        -0.2746
     25 C5         -0.6104    4.3223   -0.2723 C.ar      1 ACP        -0.1386
     26 C6         -0.9062    5.7820   -0.2194 C.ar      1 ACP         0.4778
     27 N6         -1.9385    6.2713   -0.8881 N.pl3     1 ACP        -0.8290
     28 N1         -0.0613    6.4906    0.5336 N.pl3     1 ACP        -0.6985
     29 C2          1.0416    5.8662    1.2291 C.ar      1 ACP         0.6179
     30 N3          1.3146    4.5989    1.1954 N.ar      1 ACP        -0.5105
     31 C4          0.4541    3.8697    0.4273 C.ar      1 ACP         0.2753
     32 HOG2        5.3483   -3.3089   -8.4698 H         1 ACP         0.4487
     33 HOG3        2.7099   -2.1840   -8.2998 H         1 ACP         0.4487
     34 H3B1        6.1758   -0.2834   -6.1624 H         1 ACP         0.1088
     35 H3B2        4.5545    0.3983   -6.0681 H         1 ACP         0.1088
     36 H5'1        2.8430    0.3138   -2.6391 H         1 ACP         0.0327
     37 H5'2        1.2126   -0.0907   -2.0421 H         1 ACP         0.0327
     38 H4'         3.8046   -0.1390   -0.4011 H         1 ACP         0.1275
     39 H3'         1.6787   -1.7627    0.2719 H         1 ACP         0.0637
     40 HO3'        2.2231   -1.2979    2.3952 H         1 ACP         0.4127
     41 H2'         0.0002   -0.0084   -0.0014 H         1 ACP         0.0692
     42 HO2'       -0.1554   -0.9852    2.0577 H         1 ACP         0.4431
     43 H1'         1.7718    1.9211    1.6015 H         1 ACP         0.1199
     44 H8         -1.1244    1.3534   -1.1987 H         1 ACP         0.2941
     45 HN61       -2.5259    5.6573   -1.4336 H         1 ACP         0.4754
     46 HN62       -2.1416    7.2600   -0.8539 H         1 ACP         0.4754
     47 H2          1.6509    6.5764    1.8088 H         1 ACP         0.0886
     48 H48        -0.2190    7.4917    0.6033 H         1 ACP         0.4707
@<TRIPOS>BOND
     1    1    2 2
     2    1    3 1
     3    1    4 1
     4    1    8 1
     5    3   32 1
     6    4   33 1
     7    5    6 2
     8    5    7 1
     9    5    8 1
    10    5   12 1
    11    8   34 1
    12    8   35 1
    13    9   10 2
    14    9   11 1
    15    9   12 1
    16    9   13 1
    17   13   14 1
    18   14   15 1
    19   14   36 1
    20   14   37 1
    21   15   16 1
    22   15   17 1
    23   15   38 1
    24   16   21 1
    25   17   18 1
    26   17   19 1
    27   17   39 1
    28   18   40 1
    29   19   20 1
    30   19   21 1
    31   19   41 1
    32   20   42 1
    33   21   22 1
    34   21   43 1
    35   22   23 ar
    36   22   31 ar
    37   23   24 ar
    38   23   44 1
    39   24   25 ar
    40   25   26 ar
    41   25   31 ar
    42   26   27 1
    43   26   28 ar
    44   27   45 1
    45   27   46 1
    46   28   29 ar
    47   28   48 1
    48   29   30 ar
    49   29   47 1
    50   30   31 ar
@<TRIPOS>SUBSTRUCTURE
     1 ACP         1 GROUP 0 A     ****
@<TRIPOS>MOLECULE
[[5-(6-amino-1,8-dihydropurine-6,8-diylium-7-id-9-yl)-3,4-dihydroxy-tetrahydrofuran-2-yl]methoxy-oxido-phosphoryl]oxy-(phosphonomethyl)phosphinate
   48    50     1     0     0
SMALL
USER_CHARGES

@<TRIPOS>ATOM
      1 PG          4.0125   -1.3933   -7.8441 P.3       1 ACP         1.6558
      2 O1G         4.8364   -2.2449   -6.9258 O.2       1 ACP        -0.9020
      3 O2G         2.8882   -2.1795   -8.6973 O.3       1 ACP        -0.8036
      4 O3G         4.8426   -0.5817   -8.9674 O.3       1 ACP        -0.8036
      5 PB          1.7933   -0.4483   -5.7199 P.3       1 ACP         1.4945
      6 O1B         0.7317   -1.3109   -6.3621 O.co2     1 ACP        -0.8481
      7 O2B         1.4670    0.8613   -5.0402 O.co2     1 ACP        -0.8481
      8 C3B         3.0691   -0.0960   -7.0119 C.3       1 ACP        -0.6636
      9 PA          3.9981   -0.9679   -3.8029 P.3       1 ACP         1.6023
     10 O1A         5.0312   -0.2798   -4.6687 O.co2     1 ACP        -0.8673
     11 O2A         4.3716   -2.1736   -2.9681 O.co2     1 ACP        -0.8673
     12 O3A         2.7194   -1.3641   -4.7386 O.3       1 ACP        -0.8150
     13 O5'         3.2885    0.1337   -2.8242 O.3       1 ACP        -0.5522
     14 C5'         2.2816   -0.2918   -1.9206 C.3       1 ACP         0.2181
     15 C4'         2.7248    0.0226   -0.4980 C.3       1 ACP         0.0915
     16 O4'         2.4697    1.4219   -0.2462 O.3       1 ACP        -0.3675
     17 C3'         1.9404   -0.7419    0.5596 C.3       1 ACP         0.0748
     18 O3'         2.7418   -0.8086    1.7389 O.3       1 ACP        -0.5646
     19 C2'         0.7477    0.1630    0.7858 C.3       1 ACP         0.0804
     20 O2'         0.1373   -0.0577    2.0407 O.3       1 ACP        -0.5882
     21 C1'         1.3733    1.5427    0.6747 C.3       1 ACP         0.3809
     22 N9          0.4520    2.5240    0.1767 N.pl3     1 ACP        -0.4412
     23 C8          0.1798    2.8712   -1.2933 C.ar      1 ACP         0.1936
     24 N7         -0.7494    3.8400   -1.3610 N.2       1 ACP        -0.2746
     25 C5         -1.0173    4.0603   -0.0358 C.ar      1 ACP        -0.1386
     26 C6         -2.0105    5.0717    0.4241 C.ar      1 ACP         0.4778
     27 N6         -2.6723    5.7982   -0.4628 N.pl3     1 ACP        -0.8290
     28 N1         -2.1445    5.1522    1.7502 N.pl3     1 ACP        -0.6985
     29 C2         -1.3755    4.3143    2.6426 C.ar      1 ACP         0.6179
     30 N3         -0.5075    3.4292    2.2616 N.ar      1 ACP        -0.5105
     31 C4         -0.3667    3.3425    0.9070 C.ar      1 ACP         0.2753
     32 HOG2        3.1689   -2.8919   -9.3104 H         1 ACP         0.4487
     33 HOG3        5.3808   -1.0837   -9.6158 H         1 ACP         0.4487
     34 H3B1        3.7869    0.5836   -6.5389 H         1 ACP         0.1088
     35 H3B2        2.5544    0.4758   -7.7924 H         1 ACP         0.1088
     36 H5'1        1.3501    0.2325   -2.1561 H         1 ACP         0.0327
     37 H5'2        2.1268   -1.3683   -2.0445 H         1 ACP         0.0327
     38 H4'         3.8046   -0.1390   -0.4011 H         1 ACP         0.1275
     39 H3'         1.6787   -1.7627    0.2719 H         1 ACP         0.0637
     40 HO3'        2.2231   -1.2979    2.3952 H         1 ACP         0.4127
     41 H2'         0.0002   -0.0084   -0.0014 H         1 ACP         0.0692
     42 HO2'       -0.1554   -0.9852    2.0577 H         1 ACP         0.4431
     43 H1'         1.7718    1.9211    1.6015 H         1 ACP         0.1199
     44 H8          0.6089    2.4651   -2.2147 H         1 ACP         0.2941
     45 HN61       -2.5055    5.6680   -1.4503 H         1 ACP         0.4754
     46 HN62       -3.3462    6.4841   -0.1542 H         1 ACP         0.4754
     47 H2         -1.5932    4.4937    3.7066 H         1 ACP         0.0886
     48 H48        -2.8098    5.8270    2.1160 H         1 ACP         0.4707
@<TRIPOS>BOND
     1    1    2 2
     2    1    3 1
     3    1    4 1
     4    1    8 1
     5    3   32 1
     6    4   33 1
     7    5    6 2
     8    5    7 1
     9    5    8 1
    10    5   12 1
    11    8   34 1
    12    8   35 1
    13    9   10 2
    14    9   11 1
    15    9   12 1
    16    9   13 1
    17   13   14 1
    18   14   15 1
    19   14   36 1
    20   14   37 1
    21   15   16 1
    22   15   17 1
    23   15   38 1
    24   16   21 1
    25   17   18 1
    26   17   19 1
    27   17   39 1
    28   18   40 1
    29   19   20 1
    30   19   21 1
    31   19   41 1
    32   20   42 1
    33   21   22 1
    34   21   43 1
    35   22   23 ar
    36   22   31 ar
    37   23   24 ar
    38   23   44 1
    39   24   25 ar
    40   25   26 ar
    41   25   31 ar
    42   26   27 1
    43   26   28 ar
    44   27   45 1
    45   27   46 1
    46   28   29 ar
    47   28   48 1
    48   29   30 ar
    49   29   47 1
    50   30   31 ar
@<TRIPOS>SUBSTRUCTURE
     1 ACP         1 GROUP 0 A     ****
@<TRIPOS>MOLECULE
[[5-(6-amino-1,8-dihydropurine-6,8-diylium-7-id-9-yl)-3,4-dihydroxy-tetrahydrofuran-2-yl]methoxy-oxido-phosphoryl]oxy-(phosphonomethyl)phosphinate
   48    50     1     0     0
SMALL
USER_CHARGES

@<TRIPOS>ATOM
      1 PG          5.4832   -5.0281   -4.4930 P.3       1 ACP         1.6558
      2 O1G         6.5613   -4.7255   -5.4897 O.2       1 ACP        -0.9020
      3 O2G         5.4034   -6.5653   -4.0023 O.3       1 ACP        -0.8036
      4 O3G         3.9774   -4.7073   -4.9823 O.3       1 ACP        -0.8036
      5 PB          5.5769   -2.2581   -2.8656 P.3       1 ACP         1.4945
      6 O1B         6.7347   -1.7480   -3.6920 O.co2     1 ACP        -0.8481
      7 O2B         5.3884   -1.8738   -1.4164 O.co2     1 ACP        -0.8481
      8 C3B         5.6184   -4.1055   -2.9451 C.3       1 ACP        -0.6636
      9 PA          3.4810   -0.6670   -4.2373 P.3       1 ACP         1.6023
     10 O1A         2.1230   -1.0218   -4.8033 O.co2     1 ACP        -0.8673
     11 O2A         4.4926    0.0849   -5.0747 O.co2     1 ACP        -0.8673
     12 O3A         4.1836   -2.0330   -3.6824 O.3       1 ACP        -0.8150
     13 O5'         3.2885    0.1337   -2.8242 O.3       1 ACP        -0.5522
     14 C5'         2.2816   -0.2918   -1.9206 C.3       1 ACP         0.2181
     15 C4'         2.7248    0.0226   -0.4980 C.3       1 ACP         0.0915
     16 O4'         2.4697    1.4219   -0.2462 O.3       1 ACP        -0.3675
     17 C3'         1.9404   -0.7419    0.5596 C.3       1 ACP         0.0748
     18 O3'         2.7418   -0.8086    1.7389 O.3       1 ACP        -0.5646
     19 C2'         0.7477    0.1630    0.7858 C.3       1 ACP         0.0804
     20 O2'         0.1373   -0.0577    2.0407 O.3       1 ACP        -0.5882
     21 C1'         1.3733    1.5427    0.6747 C.3       1 ACP         0.3809
     22 N9          0.4520    2.5240    0.1767 N.pl3     1 ACP        -0.4412
     23 C8         -1.0660    2.5608    0.3999 C.ar      1 ACP         0.1936
     24 N7         -1.5852    3.6333   -0.2221 N.2       1 ACP        -0.2746
     25 C5         -0.4682    4.1996   -0.7771 C.ar      1 ACP        -0.1386
     26 C6         -0.5216    5.4476   -1.5899 C.ar      1 ACP         0.4778
     27 N6         -1.6813    6.0510   -1.7982 N.pl3     1 ACP        -0.8290
     28 N1          0.6621    5.8575   -2.0523 N.pl3     1 ACP        -0.6985
     29 C2          1.8795    5.1301   -1.7717 C.ar      1 ACP         0.6179
     30 N3          1.9458    4.0434   -1.0670 N.ar      1 ACP        -0.5105
     31 C4          0.7388    3.6199   -0.5917 C.ar      1 ACP         0.2753
     32 HOG2        5.2415   -7.2683   -4.6668 H         1 ACP         0.4487
     33 HOG3        3.6279   -5.1656   -5.7759 H         1 ACP         0.4487
     34 H3B1        4.8129   -4.4466   -2.2850 H         1 ACP         0.1088
     35 H3B2        6.5632   -4.4039   -2.4765 H         1 ACP         0.1088
     36 H5'1        1.3501    0.2325   -2.1561 H         1 ACP         0.0327
     37 H5'2        2.1268   -1.3683   -2.0445 H         1 ACP         0.0327
     38 H4'         3.8046   -0.1390   -0.4011 H         1 ACP         0.1275
     39 H3'         1.6787   -1.7627    0.2719 H         1 ACP         0.0637
     40 HO3'        2.2231   -1.2979    2.3952 H         1 ACP         0.4127
     41 H2'         0.0002   -0.0084   -0.0014 H         1 ACP         0.0692
     42 HO2'       -0.1554   -0.9852    2.0577 H         1 ACP         0.4431
     43 H1'         1.7718    1.9211    1.6015 H         1 ACP         0.1199
     44 H8         -1.7235    1.8833    0.9537 H         1 ACP         0.2941
     45 HN61       -2.5296    5.6672   -1.4072 H         1 ACP         0.4754
     46 HN62       -1.7205    6.8969   -2.3483 H         1 ACP         0.4754
     47 H2          2.7750    5.5878   -2.2190 H         1 ACP         0.0886
     48 H48         0.6808    6.7046   -2.6128 H         1 ACP         0.4707
@<TRIPOS>BOND
     1    1    2 2
     2    1    3 1
     3    1    4 1
     4    1    8 1
     5    3   32 1
     6    4   33 1
     7    5    6 2
     8    5    7 1
     9    5    8 1
    10    5   12 1
    11    8   34 1
    12    8   35 1
    13    9   10 2
    14    9   11 1
    15    9   12 1
    16    9   13 1
    17   13   14 1
    18   14   15 1
    19   14   36 1
    20   14   37 1
    21   15   16 1
    22   15   17 1
    23   15   38 1
    24   16   21 1
    25   17   18 1
    26   17   19 1
    27   17   39 1
    28   18   40 1
    29   19   20 1
    30   19   21 1
    31   19   41 1
    32   20   42 1
    33   21   22 1
    34   21   43 1
    35   22   23 ar
    36   22   31 ar
    37   23   24 ar
    38   23   44 1
    39   24   25 ar
    40   25   26 ar
    41   25   31 ar
    42   26   27 1
    43   26   28 ar
    44   27   45 1
    45   27   46 1
    46   28   29 ar
    47   28   48 1
    48   29   30 ar
    49   29   47 1
    50   30   31 ar
@<TRIPOS>SUBSTRUCTURE
     1 ACP         1 GROUP 0 A     ****
@<TRIPOS>MOLECULE
[[5-(6-amino-1,8-dihydropurine-6,8-diylium-7-id-9-yl)-3,4-dihydroxy-tetrahydrofuran-2-yl]methoxy-oxido-phosphoryl]oxy-(phosphonomethyl)phosphinate
   48    50     1     0     0
SMALL
USER_CHARGES

@<TRIPOS>ATOM
      1 PG         -4.4501   -1.6718    4.0208 P.3       1 ACP         1.6558
      2 O1G        -4.4580   -3.0154    3.3559 O.2       1 ACP        -0.9020
      3 O2G        -5.8923   -1.1296    4.5071 O.3       1 ACP        -0.8036
      4 O3G        -3.8712   -0.4587    3.1247 O.3       1 ACP        -0.8036
      5 PB         -1.6313   -1.9333    5.5425 P.3       1 ACP         1.4945
      6 O1B        -1.1587   -1.7629    6.9677 O.co2     1 ACP        -0.8481
      7 O2B        -1.0158   -1.1717    4.3916 O.co2     1 ACP        -0.8481
      8 C3B        -3.4484   -1.5888    5.5225 C.3       1 ACP        -0.6636
      9 PA         -0.5283   -4.5720    4.7510 P.3       1 ACP         1.6023
     10 O1A        -1.1738   -5.8924    4.3898 O.co2     1 ACP        -0.8673
     11 O2A         0.5701   -4.5098    5.7900 O.co2     1 ACP        -0.8673
     12 O3A        -1.7033   -3.5212    5.1784 O.3       1 ACP        -0.8150
     13 O5'         0.0100   -3.8402    3.3910 O.3       1 ACP        -0.5522
     14 C5'        -0.7840   -3.8935    2.2172 C.3       1 ACP         0.2181
     15 C4'        -0.0724   -3.1466    1.1027 C.3       1 ACP         0.0915
     16 O4'        -0.8674   -3.1929   -0.0945 O.3       1 ACP        -0.3675
     17 C3'         0.1338   -1.6715    1.4027 C.3       1 ACP         0.0748
     18 O3'         1.2893   -1.4445    2.1808 O.3       1 ACP        -0.5646
     19 C2'         0.2158   -1.0724    0.0128 C.3       1 ACP         0.0804
     20 O2'         1.5141   -1.2448   -0.5513 O.3       1 ACP        -0.5882
     21 C1'        -0.7897   -1.9176   -0.7583 C.3       1 ACP         0.3809
     22 N9         -2.1040   -1.3333   -0.7704 N.pl3     1 ACP        -0.4412
     23 C8         -3.2124   -1.5345    0.2719 C.ar      1 ACP         0.1936
     24 N7         -4.2964   -0.8234   -0.0828 N.2       1 ACP        -0.2746
     25 C5         -3.8754   -0.2386   -1.2478 C.ar      1 ACP        -0.1386
     26 C6         -4.7432    0.6719   -2.0470 C.ar      1 ACP         0.4778
     27 N6         -5.9725    0.9415   -1.6366 N.pl3     1 ACP        -0.8290
     28 N1         -4.1703    1.1517   -3.1536 N.pl3     1 ACP        -0.6985
     29 C2         -2.8174    0.7994   -3.5215 C.ar      1 ACP         0.6179
     30 N3         -2.0475    0.0097   -2.8393 N.ar      1 ACP        -0.5105
     31 C4         -2.6278   -0.4836   -1.7071 C.ar      1 ACP         0.2753
     32 HOG2       -6.6006   -1.0005    3.8409 H         1 ACP         0.4487
     33 HOG3       -4.3133   -0.2414    2.2765 H         1 ACP         0.4487
     34 H3B1       -3.5617   -0.5823    5.9407 H         1 ACP         0.1088
     35 H3B2       -3.8929   -2.2856    6.2423 H         1 ACP         0.1088
     36 H5'1       -0.9357   -4.9414    1.9397 H         1 ACP         0.0327
     37 H5'2       -1.7557   -3.4349    2.4259 H         1 ACP         0.0327
     38 H4'         0.8883   -3.6447    0.8783 H         1 ACP         0.1275
     39 H3'        -0.7368   -1.2359    1.9871 H         1 ACP         0.0637
     40 HO3'        1.3407   -0.4871    2.3218 H         1 ACP         0.4127
     41 H2'        -0.0343   -0.0280    0.0196 H         1 ACP         0.0692
     42 HO2'        2.1443   -0.7955    0.0378 H         1 ACP         0.4431
     43 H1'        -0.5175   -2.1046   -1.7826 H         1 ACP         0.1199
     44 H8         -3.2310   -2.1319    1.1889 H         1 ACP         0.2941
     45 HN61       -6.3230    0.5316   -0.7829 H         1 ACP         0.4754
     46 HN62       -6.5628    1.5584   -2.1760 H         1 ACP         0.4754
     47 H2         -2.4822    1.2710   -4.4579 H         1 ACP         0.0886
     48 H48        -4.7200    1.7780   -3.7346 H         1 ACP         0.4707
@<TRIPOS>BOND
     1    1    2 2
     2    1    3 1
     3    1    4 1
     4    1    8 1
     5    3   32 1
     6    4   33 1
     7    5    6 2
     8    5    7 1
     9    5    8 1
    10    5   12 1
    11    8   34 1
    12    8   35 1
    13    9   10 2
    14    9   11 1
    15    9   12 1
    16    9   13 1
    17   13   14 1
    18   14   15 1
    19   14   36 1
    20   14   37 1
    21   15   16 1
    22   15   17 1
    23   15   38 1
    24   16   21 1
    25   17   18 1
    26   17   19 1
    27   17   39 1
    28   18   40 1
    29   19   20 1
    30   19   21 1
    31   19   41 1
    32   20   42 1
    33   21   22 1
    34   21   43 1
    35   22   23 ar
    36   22   31 ar
    37   23   24 ar
    38   23   44 1
    39   24   25 ar
    40   25   26 ar
    41   25   31 ar
    42   26   27 1
    43   26   28 ar
    44   27   45 1
    45   27   46 1
    46   28   29 ar
    47   28   48 1
    48   29   30 ar
    49   29   47 1
    50   30   31 ar
@<TRIPOS>SUBSTRUCTURE
     1 ACP         1 GROUP 0 A     ****
@<TRIPOS>MOLECULE
[[5-(6-amino-1,8-dihydropurine-6,8-diylium-7-id-9-yl)-3,4-dihydroxy-tetrahydrofuran-2-yl]methoxy-oxido-phosphoryl]oxy-(phosphonomethyl)phosphinate
   48    50     1     0     0
SMALL
USER_CHARGES

@<TRIPOS>ATOM
      1 PG         -4.1001   -2.7782    7.4190 P.3       1 ACP         1.6558
      2 O1G        -4.1331   -4.2385    7.0819 O.2       1 ACP        -0.9020
      3 O2G        -3.2539   -2.3897    8.7394 O.3       1 ACP        -0.8036
      4 O3G        -5.5406   -2.0938    7.6765 O.3       1 ACP        -0.8036
      5 PB         -1.6313   -1.9333    5.5425 P.3       1 ACP         1.4945
      6 O1B        -0.7242   -1.7290    6.7338 O.co2     1 ACP        -0.8481
      7 O2B        -1.4930   -1.1232    4.2744 O.co2     1 ACP        -0.8481
      8 C3B        -3.3711   -1.7333    6.1375 C.3       1 ACP        -0.6636
      9 PA         -0.5283   -4.5720    4.7510 P.3       1 ACP         1.6023
     10 O1A        -1.1738   -5.8924    4.3898 O.co2     1 ACP        -0.8673
     11 O2A         0.5701   -4.5098    5.7900 O.co2     1 ACP        -0.8673
     12 O3A        -1.7033   -3.5212    5.1784 O.3       1 ACP        -0.8150
     13 O5'         0.0100   -3.8402    3.3910 O.3       1 ACP        -0.5522
     14 C5'        -0.7840   -3.8935    2.2172 C.3       1 ACP         0.2181
     15 C4'        -0.0724   -3.1466    1.1027 C.3       1 ACP         0.0915
     16 O4'        -0.8674   -3.1929   -0.0945 O.3       1 ACP        -0.3675
     17 C3'         0.1338   -1.6715    1.4027 C.3       1 ACP         0.0748
     18 O3'         1.2893   -1.4445    2.1808 O.3       1 ACP        -0.5646
     19 C2'         0.2158   -1.0724    0.0128 C.3       1 ACP         0.0804
     20 O2'         1.5141   -1.2448   -0.5513 O.3       1 ACP        -0.5882
     21 C1'        -0.7897   -1.9176   -0.7583 C.3       1 ACP         0.3809
     22 N9         -2.1040   -1.3333   -0.7704 N.pl3     1 ACP        -0.4412
     23 C8         -3.2124   -1.5345    0.2719 C.ar      1 ACP         0.1936
     24 N7         -4.2964   -0.8234   -0.0828 N.2       1 ACP        -0.2746
     25 C5         -3.8754   -0.2386   -1.2478 C.ar      1 ACP        -0.1386
     26 C6         -4.7432    0.6719   -2.0470 C.ar      1 ACP         0.4778
     27 N6         -5.9725    0.9415   -1.6366 N.pl3     1 ACP        -0.8290
     28 N1         -4.1703    1.1517   -3.1536 N.pl3     1 ACP        -0.6985
     29 C2         -2.8174    0.7994   -3.5215 C.ar      1 ACP         0.6179
     30 N3         -2.0475    0.0097   -2.8393 N.ar      1 ACP        -0.5105
     31 C4         -2.6278   -0.4836   -1.7071 C.ar      1 ACP         0.2753
     32 HOG2       -3.5193   -2.7714    9.6030 H         1 ACP         0.4487
     33 HOG3       -6.1070   -2.4367    8.4001 H         1 ACP         0.4487
     34 H3B1       -3.9994   -1.8189    5.2436 H         1 ACP         0.1088
     35 H3B2       -3.4509   -0.6973    6.4859 H         1 ACP         0.1088
     36 H5'1       -0.9357   -4.9414    1.9397 H         1 ACP         0.0327
     37 H5'2       -1.7557   -3.4349    2.4259 H         1 ACP         0.0327
     38 H4'         0.8883   -3.6447    0.8783 H         1 ACP         0.1275
     39 H3'        -0.7368   -1.2359    1.9871 H         1 ACP         0.0637
     40 HO3'        1.1625   -1.9325    3.0084 H         1 ACP         0.4127
     41 H2'        -0.0343   -0.0280    0.0196 H         1 ACP         0.0692
     42 HO2'        2.1443   -0.7955    0.0378 H         1 ACP         0.4431
     43 H1'        -0.5175   -2.1046   -1.7826 H         1 ACP         0.1199
     44 H8         -3.2310   -2.1319    1.1889 H         1 ACP         0.2941
     45 HN61       -6.3230    0.5316   -0.7829 H         1 ACP         0.4754
     46 HN62       -6.5628    1.5584   -2.1760 H         1 ACP         0.4754
     47 H2         -2.4822    1.2710   -4.4579 H         1 ACP         0.0886
     48 H48        -4.7200    1.7780   -3.7346 H         1 ACP         0.4707
@<TRIPOS>BOND
     1    1    2 2
     2    1    3 1
     3    1    4 1
     4    1    8 1
     5    3   32 1
     6    4   33 1
     7    5    6 2
     8    5    7 1
     9    5    8 1
    10    5   12 1
    11    8   34 1
    12    8   35 1
    13    9   10 2
    14    9   11 1
    15    9   12 1
    16    9   13 1
    17   13   14 1
    18   14   15 1
    19   14   36 1
    20   14   37 1
    21   15   16 1
    22   15   17 1
    23   15   38 1
    24   16   21 1
    25   17   18 1
    26   17   19 1
    27   17   39 1
    28   18   40 1
    29   19   20 1
    30   19   21 1
    31   19   41 1
    32   20   42 1
    33   21   22 1
    34   21   43 1
    35   22   23 ar
    36   22   31 ar
    37   23   24 ar
    38   23   44 1
    39   24   25 ar
    40   25   26 ar
    41   25   31 ar
    42   26   27 1
    43   26   28 ar
    44   27   45 1
    45   27   46 1
    46   28   29 ar
    47   28   48 1
    48   29   30 ar
    49   29   47 1
    50   30   31 ar
@<TRIPOS>SUBSTRUCTURE
     1 ACP         1 GROUP 0 A     ****
@<TRIPOS>MOLECULE
[[5-(6-amino-1,8-dihydropurine-6,8-diylium-7-id-9-yl)-3,4-dihydroxy-tetrahydrofuran-2-yl]methoxy-oxido-phosphoryl]oxy-(phosphonomethyl)phosphinate
   48    50     1     0     0
SMALL
USER_CHARGES

@<TRIPOS>ATOM
      1 PG         -0.1050   -0.0367   -7.0236 P.3       1 ACP         1.6558
      2 O1G         1.3704    0.1733   -7.1860 O.2       1 ACP        -0.9020
      3 O2G        -0.7176   -1.3022   -7.8194 O.3       1 ACP        -0.8036
      4 O3G        -1.0364    1.1957   -7.4962 O.3       1 ACP        -0.8036
      5 PB         -0.0254   -1.7404   -4.2995 P.3       1 ACP         1.4945
      6 O1B        -0.4183   -3.0107   -5.0176 O.co2     1 ACP        -0.8481
      7 O2B        -0.4217   -1.4674   -2.8671 O.co2     1 ACP        -0.8481
      8 C3B        -0.6344   -0.3230   -5.3197 C.3       1 ACP        -0.6636
      9 PA          2.8590   -2.1285   -3.7205 P.3       1 ACP         1.6023
     10 O1A         4.1100   -1.4231   -4.1979 O.co2     1 ACP        -0.8673
     11 O2A         2.7489   -3.6360   -3.7934 O.co2     1 ACP        -0.8673
     12 O3A         1.5729   -1.4791   -4.4897 O.3       1 ACP        -0.8150
     13 O5'         2.5238   -1.6632   -2.1888 O.3       1 ACP        -0.5522
     14 C5'         2.2816   -0.2918   -1.9206 C.3       1 ACP         0.2181
     15 C4'         2.7248    0.0226   -0.4980 C.3       1 ACP         0.0915
     16 O4'         2.4697    1.4219   -0.2462 O.3       1 ACP        -0.3675
     17 C3'         1.9404   -0.7419    0.5596 C.3       1 ACP         0.0748
     18 O3'         2.7418   -0.8086    1.7389 O.3       1 ACP        -0.5646
     19 C2'         0.7477    0.1630    0.7858 C.3       1 ACP         0.0804
     20 O2'         0.1373   -0.0577    2.0407 O.3       1 ACP        -0.5882
     21 C1'         1.3733    1.5427    0.6747 C.3       1 ACP         0.3809
     22 N9          0.4520    2.5240    0.1767 N.pl3     1 ACP        -0.4412
     23 C8          0.1798    2.8712   -1.2933 C.ar      1 ACP         0.1936
     24 N7         -0.7494    3.8400   -1.3610 N.2       1 ACP        -0.2746
     25 C5         -1.0173    4.0603   -0.0358 C.ar      1 ACP        -0.1386
     26 C6         -2.0105    5.0717    0.4241 C.ar      1 ACP         0.4778
     27 N6         -2.6723    5.7982   -0.4628 N.pl3     1 ACP        -0.8290
     28 N1         -2.1445    5.1522    1.7502 N.pl3     1 ACP        -0.6985
     29 C2         -1.3755    4.3143    2.6426 C.ar      1 ACP         0.6179
     30 N3         -0.5075    3.4292    2.2616 N.ar      1 ACP        -0.5105
     31 C4         -0.3667    3.3425    0.9070 C.ar      1 ACP         0.2753
     32 HOG2       -0.6341   -1.3350   -8.7962 H         1 ACP         0.4487
     33 HOG3       -0.9947    1.4919   -8.4303 H         1 ACP         0.4487
     34 H3B1       -0.3962    0.5781   -4.7433 H         1 ACP         0.1088
     35 H3B2       -1.7265   -0.4129   -5.3350 H         1 ACP         0.1088
     36 H5'1        2.8430    0.3138   -2.6391 H         1 ACP         0.0327
     37 H5'2        1.2126   -0.0907   -2.0421 H         1 ACP         0.0327
     38 H4'         3.8046   -0.1390   -0.4011 H         1 ACP         0.1275
     39 H3'         1.6787   -1.7627    0.2719 H         1 ACP         0.0637
     40 HO3'        3.5553   -1.2733    1.4913 H         1 ACP         0.4127
     41 H2'         0.0002   -0.0084   -0.0014 H         1 ACP         0.0692
     42 HO2'       -0.6132    0.5577    2.1063 H         1 ACP         0.4431
     43 H1'         1.7718    1.9211    1.6015 H         1 ACP         0.1199
     44 H8          0.6089    2.4651   -2.2147 H         1 ACP         0.2941
     45 HN61       -2.5055    5.6680   -1.4503 H         1 ACP         0.4754
     46 HN62       -3.3462    6.4841   -0.1542 H         1 ACP         0.4754
     47 H2         -1.5932    4.4937    3.7066 H         1 ACP         0.0886
     48 H48        -2.8098    5.8270    2.1160 H         1 ACP         0.4707
@<TRIPOS>BOND
     1    1    2 2
     2    1    3 1
     3    1    4 1
     4    1    8 1
     5    3   32 1
     6    4   33 1
     7    5    6 2
     8    5    7 1
     9    5    8 1
    10    5   12 1
    11    8   34 1
    12    8   35 1
    13    9   10 2
    14    9   11 1
    15    9   12 1
    16    9   13 1
    17   13   14 1
    18   14   15 1
    19   14   36 1
    20   14   37 1
    21   15   16 1
    22   15   17 1
    23   15   38 1
    24   16   21 1
    25   17   18 1
    26   17   19 1
    27   17   39 1
    28   18   40 1
    29   19   20 1
    30   19   21 1
    31   19   41 1
    32   20   42 1
    33   21   22 1
    34   21   43 1
    35   22   23 ar
    36   22   31 ar
    37   23   24 ar
    38   23   44 1
    39   24   25 ar
    40   25   26 ar
    41   25   31 ar
    42   26   27 1
    43   26   28 ar
    44   27   45 1
    45   27   46 1
    46   28   29 ar
    47   28   48 1
    48   29   30 ar
    49   29   47 1
    50   30   31 ar
@<TRIPOS>SUBSTRUCTURE
     1 ACP         1 GROUP 0 A     ****
@<TRIPOS>MOLECULE
[[5-(6-amino-1,8-dihydropurine-6,8-diylium-7-id-9-yl)-3,4-dihydroxy-tetrahydrofuran-2-yl]methoxy-oxido-phosphoryl]oxy-(phosphonomethyl)phosphinate
   48    50     1     0     0
SMALL
USER_CHARGES

@<TRIPOS>ATOM
      1 PG         -0.6606   -2.6533   -4.1727 P.3       1 ACP         1.6558
      2 O1G        -1.8358   -1.7226   -4.1724 O.2       1 ACP        -0.9020
      3 O2G        -1.0201   -4.2251   -4.0705 O.3       1 ACP        -0.8036
      4 O3G         0.4016   -2.4285   -2.9765 O.3       1 ACP        -0.8036
      5 PB          1.2216   -1.0095   -6.1939 P.3       1 ACP         1.4945
      6 O1B         0.1546    0.0352   -6.4253 O.co2     1 ACP        -0.8481
      7 O2B         2.2203   -1.3934   -7.2610 O.co2     1 ACP        -0.8481
      8 C3B         0.3652   -2.5585   -5.6574 C.3       1 ACP        -0.6636
      9 PA          2.8587    0.6155   -4.3269 P.3       1 ACP         1.6023
     10 O1A         1.9171    1.7961   -4.2263 O.co2     1 ACP        -0.8673
     11 O2A         4.1093    0.6971   -5.1750 O.co2     1 ACP        -0.8673
     12 O3A         2.0007   -0.6924   -4.7968 O.3       1 ACP        -0.8150
     13 O5'         3.2885    0.1337   -2.8242 O.3       1 ACP        -0.5522
     14 C5'         2.2816   -0.2918   -1.9206 C.3       1 ACP         0.2181
     15 C4'         2.7248    0.0226   -0.4980 C.3       1 ACP         0.0915
     16 O4'         2.4697    1.4219   -0.2462 O.3       1 ACP        -0.3675
     17 C3'         1.9404   -0.7419    0.5596 C.3       1 ACP         0.0748
     18 O3'         2.7418   -0.8086    1.7389 O.3       1 ACP        -0.5646
     19 C2'         0.7477    0.1630    0.7858 C.3       1 ACP         0.0804
     20 O2'         0.1373   -0.0577    2.0407 O.3       1 ACP        -0.5882
     21 C1'         1.3733    1.5427    0.6747 C.3       1 ACP         0.3809
     22 N9          0.4520    2.5240    0.1767 N.pl3     1 ACP        -0.4412
     23 C8         -0.3054    2.4845   -1.1576 C.ar      1 ACP         0.1936
     24 N7         -1.0755    3.5806   -1.2691 N.2       1 ACP        -0.2746
     25 C5         -0.8043    4.2306   -0.0942 C.ar      1 ACP        -0.1386
     26 C6         -1.4324    5.5335    0.2646 C.ar      1 ACP         0.4778
     27 N6         -2.2885    6.1054   -0.5675 N.pl3     1 ACP        -0.8290
     28 N1         -1.0537    6.0229    1.4478 N.pl3     1 ACP        -0.6985
     29 C2         -0.1096    5.3242    2.2908 C.ar      1 ACP         0.6179
     30 N3          0.4468    4.1904    1.9960 N.ar      1 ACP        -0.5105
     31 C4          0.0631    3.6855    0.7877 C.ar      1 ACP         0.2753
     32 HOG2       -1.5112   -4.5501   -3.2862 H         1 ACP         0.4487
     33 HOG3        0.0976   -2.5168   -2.0482 H         1 ACP         0.4487
     34 H3B1        1.1541   -3.3134   -5.5634 H         1 ACP         0.1088
     35 H3B2       -0.2656   -2.8593   -6.5016 H         1 ACP         0.1088
     36 H5'1        1.3501    0.2325   -2.1561 H         1 ACP         0.0327
     37 H5'2        2.1268   -1.3683   -2.0445 H         1 ACP         0.0327
     38 H4'         3.8046   -0.1390   -0.4011 H         1 ACP         0.1275
     39 H3'         1.6787   -1.7627    0.2719 H         1 ACP         0.0637
     40 HO3'        2.2231   -1.2979    2.3952 H         1 ACP         0.4127
     41 H2'         0.0002   -0.0084   -0.0014 H         1 ACP         0.0692
     42 HO2'       -0.6132    0.5577    2.1063 H         1 ACP         0.4431
     43 H1'         1.7718    1.9211    1.6015 H         1 ACP         0.1199
     44 H8         -0.2991    1.7413   -1.9611 H         1 ACP         0.2941
     45 HN61       -2.5167    5.6603   -1.4447 H         1 ACP         0.4754
     46 HN62       -2.7159    6.9882   -0.3270 H         1 ACP         0.4754
     47 H2          0.1059    5.8491    3.2340 H         1 ACP         0.0886
     48 H48        -1.4532    6.9099    1.7401 H         1 ACP         0.4707
@<TRIPOS>BOND
     1    1    2 2
     2    1    3 1
     3    1    4 1
     4    1    8 1
     5    3   32 1
     6    4   33 1
     7    5    6 2
     8    5    7 1
     9    5    8 1
    10    5   12 1
    11    8   34 1
    12    8   35 1
    13    9   10 2
    14    9   11 1
    15    9   12 1
    16    9   13 1
    17   13   14 1
    18   14   15 1
    19   14   36 1
    20   14   37 1
    21   15   16 1
    22   15   17 1
    23   15   38 1
    24   16   21 1
    25   17   18 1
    26   17   19 1
    27   17   39 1
    28   18   40 1
    29   19   20 1
    30   19   21 1
    31   19   41 1
    32   20   42 1
    33   21   22 1
    34   21   43 1
    35   22   23 ar
    36   22   31 ar
    37   23   24 ar
    38   23   44 1
    39   24   25 ar
    40   25   26 ar
    41   25   31 ar
    42   26   27 1
    43   26   28 ar
    44   27   45 1
    45   27   46 1
    46   28   29 ar
    47   28   48 1
    48   29   30 ar
    49   29   47 1
    50   30   31 ar
@<TRIPOS>SUBSTRUCTURE
     1 ACP         1 GROUP 0 A     ****
@<TRIPOS>MOLECULE
[[5-(6-amino-1,8-dihydropurine-6,8-diylium-7-id-9-yl)-3,4-dihydroxy-tetrahydrofuran-2-yl]methoxy-oxido-phosphoryl]oxy-(phosphonomethyl)phosphinate
   48    50     1     0     0
SMALL
USER_CHARGES

@<TRIPOS>ATOM
      1 PG         -0.9517    0.6852   -4.9986 P.3       1 ACP         1.6558
      2 O1G        -0.3035    1.9075   -5.5760 O.2       1 ACP        -0.9020
      3 O2G        -2.5670    0.7024   -4.9739 O.3       1 ACP        -0.8036
      4 O3G        -0.5524    0.3455   -3.4706 O.3       1 ACP        -0.8036
      5 PB          1.1551   -1.4948   -6.0659 P.3       1 ACP         1.4945
      6 O1B         1.9485   -0.4452   -6.8091 O.co2     1 ACP        -0.8481
      7 O2B         1.0487   -2.9213   -6.5529 O.co2     1 ACP        -0.8481
      8 C3B        -0.5670   -0.8474   -5.8752 C.3       1 ACP        -0.6636
      9 PA          2.8590   -2.1285   -3.7205 P.3       1 ACP         1.6023
     10 O1A         4.1100   -1.4231   -4.1979 O.co2     1 ACP        -0.8673
     11 O2A         2.7489   -3.6360   -3.7934 O.co2     1 ACP        -0.8673
     12 O3A         1.5729   -1.4791   -4.4897 O.3       1 ACP        -0.8150
     13 O5'         2.5238   -1.6632   -2.1888 O.3       1 ACP        -0.5522
     14 C5'         2.2816   -0.2918   -1.9206 C.3       1 ACP         0.2181
     15 C4'         2.7248    0.0226   -0.4980 C.3       1 ACP         0.0915
     16 O4'         2.4697    1.4219   -0.2462 O.3       1 ACP        -0.3675
     17 C3'         1.9404   -0.7419    0.5596 C.3       1 ACP         0.0748
     18 O3'         2.7418   -0.8086    1.7389 O.3       1 ACP        -0.5646
     19 C2'         0.7477    0.1630    0.7858 C.3       1 ACP         0.0804
     20 O2'         0.1373   -0.0577    2.0407 O.3       1 ACP        -0.5882
     21 C1'         1.3733    1.5427    0.6747 C.3       1 ACP         0.3809
     22 N9          0.4520    2.5240    0.1767 N.pl3     1 ACP        -0.4412
     23 C8          0.5793    3.3338   -1.1209 C.ar      1 ACP         0.1936
     24 N7         -0.4807    4.1508   -1.2458 N.2       1 ACP        -0.2746
     25 C5         -1.1921    3.8572   -0.1126 C.ar      1 ACP        -0.1386
     26 C6         -2.4855    4.5203    0.2163 C.ar      1 ACP         0.4778
     27 N6         -2.9873    5.4319   -0.6020 N.pl3     1 ACP        -0.8290
     28 N1         -3.0414    4.1119    1.3596 N.pl3     1 ACP        -0.6985
     29 C2         -2.4169    3.1071    2.1904 C.ar      1 ACP         0.6179
     30 N3         -1.2928    2.5191    1.9210 N.ar      1 ACP        -0.5105
     31 C4         -0.7202    2.9326    0.7534 C.ar      1 ACP         0.2753
     32 HOG2       -3.0270    1.4084   -4.4719 H         1 ACP         0.4487
     33 HOG3       -0.7469    1.0046   -2.7708 H         1 ACP         0.4487
     34 H3B1       -1.1331   -1.6540   -5.3957 H         1 ACP         0.1088
     35 H3B2       -0.9610   -0.7416   -6.8924 H         1 ACP         0.1088
     36 H5'1        2.8430    0.3138   -2.6391 H         1 ACP         0.0327
     37 H5'2        1.2126   -0.0907   -2.0421 H         1 ACP         0.0327
     38 H4'         3.8046   -0.1390   -0.4011 H         1 ACP         0.1275
     39 H3'         1.6787   -1.7627    0.2719 H         1 ACP         0.0637
     40 HO3'        3.5553   -1.2733    1.4913 H         1 ACP         0.4127
     41 H2'         0.0002   -0.0084   -0.0014 H         1 ACP         0.0692
     42 HO2'       -0.6132    0.5577    2.1063 H         1 ACP         0.4431
     43 H1'         1.7718    1.9211    1.6015 H         1 ACP         0.1199
     44 H8          1.3565    3.3309   -1.8916 H         1 ACP         0.2941
     45 HN61       -2.4952    5.6785   -1.4487 H         1 ACP         0.4754
     46 HN62       -3.8637    5.8828   -0.3819 H         1 ACP         0.4754
     47 H2         -2.9911    2.8734    3.1000 H         1 ACP         0.0886
     48 H48        -3.9253    4.5332    1.6302 H         1 ACP         0.4707
@<TRIPOS>BOND
     1    1    2 2
     2    1    3 1
     3    1    4 1
     4    1    8 1
     5    3   32 1
     6    4   33 1
     7    5    6 2
     8    5    7 1
     9    5    8 1
    10    5   12 1
    11    8   34 1
    12    8   35 1
    13    9   10 2
    14    9   11 1
    15    9   12 1
    16    9   13 1
    17   13   14 1
    18   14   15 1
    19   14   36 1
    20   14   37 1
    21   15   16 1
    22   15   17 1
    23   15   38 1
    24   16   21 1
    25   17   18 1
    26   17   19 1
    27   17   39 1
    28   18   40 1
    29   19   20 1
    30   19   21 1
    31   19   41 1
    32   20   42 1
    33   21   22 1
    34   21   43 1
    35   22   23 ar
    36   22   31 ar
    37   23   24 ar
    38   23   44 1
    39   24   25 ar
    40   25   26 ar
    41   25   31 ar
    42   26   27 1
    43   26   28 ar
    44   27   45 1
    45   27   46 1
    46   28   29 ar
    47   28   48 1
    48   29   30 ar
    49   29   47 1
    50   30   31 ar
@<TRIPOS>SUBSTRUCTURE
     1 ACP         1 GROUP 0 A     ****
@<TRIPOS>MOLECULE
[[5-(6-amino-1,8-dihydropurine-6,8-diylium-7-id-9-yl)-3,4-dihydroxy-tetrahydrofuran-2-yl]methoxy-oxido-phosphoryl]oxy-(phosphonomethyl)phosphinate
   48    50     1     0     0
SMALL
USER_CHARGES

@<TRIPOS>ATOM
      1 PG         -2.2923   -0.5177   -3.0095 P.3       1 ACP         1.6558
      2 O1G        -1.2120   -0.0766   -2.0684 O.2       1 ACP        -0.9020
      3 O2G        -2.4214    0.3435   -4.3703 O.3       1 ACP        -0.8036
      4 O3G        -3.7898   -0.4971   -2.4039 O.3       1 ACP        -0.8036
      5 PB         -0.6407   -2.7954   -4.5632 P.3       1 ACP         1.4945
      6 O1B        -0.5629   -1.9595   -5.8197 O.co2     1 ACP        -0.8481
      7 O2B        -0.6955   -4.3051   -4.6002 O.co2     1 ACP        -0.8481
      8 C3B        -2.1135   -2.2135   -3.6077 C.3       1 ACP        -0.6636
      9 PA          2.1358   -2.2685   -3.6578 P.3       1 ACP         1.6023
     10 O1A         2.4970   -1.2612   -4.7281 O.co2     1 ACP        -0.8673
     11 O2A         2.6457   -3.6911   -3.7347 O.co2     1 ACP        -0.8673
     12 O3A         0.5094   -2.3101   -3.5139 O.3       1 ACP        -0.8150
     13 O5'         2.5238   -1.6632   -2.1888 O.3       1 ACP        -0.5522
     14 C5'         2.2816   -0.2918   -1.9206 C.3       1 ACP         0.2181
     15 C4'         2.7248    0.0226   -0.4980 C.3       1 ACP         0.0915
     16 O4'         2.4697    1.4219   -0.2462 O.3       1 ACP        -0.3675
     17 C3'         1.9404   -0.7419    0.5596 C.3       1 ACP         0.0748
     18 O3'         2.7418   -0.8086    1.7389 O.3       1 ACP        -0.5646
     19 C2'         0.7477    0.1630    0.7858 C.3       1 ACP         0.0804
     20 O2'         0.1373   -0.0577    2.0407 O.3       1 ACP        -0.5882
     21 C1'         1.3733    1.5427    0.6747 C.3       1 ACP         0.3809
     22 N9          0.4520    2.5240    0.1767 N.pl3     1 ACP        -0.4412
     23 C8         -1.0660    2.5608    0.3999 C.ar      1 ACP         0.1936
     24 N7         -1.5852    3.6333   -0.2221 N.2       1 ACP        -0.2746
     25 C5         -0.4682    4.1996   -0.7771 C.ar      1 ACP        -0.1386
     26 C6         -0.5216    5.4476   -1.5899 C.ar      1 ACP         0.4778
     27 N6         -1.6813    6.0510   -1.7982 N.pl3     1 ACP        -0.8290
     28 N1          0.6621    5.8575   -2.0523 N.pl3     1 ACP        -0.6985
     29 C2          1.8795    5.1301   -1.7717 C.ar      1 ACP         0.6179
     30 N3          1.9458    4.0434   -1.0670 N.ar      1 ACP        -0.5105
     31 C4          0.7388    3.6199   -0.5917 C.ar      1 ACP         0.2753
     32 HOG2       -2.6126    1.3035   -4.3087 H         1 ACP         0.4487
     33 HOG3       -4.1610    0.3523   -2.0832 H         1 ACP         0.4487
     34 H3B1       -2.1834   -2.8795   -2.7403 H         1 ACP         0.1088
     35 H3B2       -2.9828   -2.4223   -4.2416 H         1 ACP         0.1088
     36 H5'1        2.8430    0.3138   -2.6391 H         1 ACP         0.0327
     37 H5'2        1.2126   -0.0907   -2.0421 H         1 ACP         0.0327
     38 H4'         3.8046   -0.1390   -0.4011 H         1 ACP         0.1275
     39 H3'         1.6787   -1.7627    0.2719 H         1 ACP         0.0637
     40 HO3'        2.2231   -1.2979    2.3952 H         1 ACP         0.4127
     41 H2'         0.0002   -0.0084   -0.0014 H         1 ACP         0.0692
     42 HO2'       -0.1554   -0.9852    2.0577 H         1 ACP         0.4431
     43 H1'         1.7718    1.9211    1.6015 H         1 ACP         0.1199
     44 H8         -1.7235    1.8833    0.9537 H         1 ACP         0.2941
     45 HN61       -2.5296    5.6672   -1.4072 H         1 ACP         0.4754
     46 HN62       -1.7205    6.8969   -2.3483 H         1 ACP         0.4754
     47 H2          2.7750    5.5878   -2.2190 H         1 ACP         0.0886
     48 H48         0.6808    6.7046   -2.6128 H         1 ACP         0.4707
@<TRIPOS>BOND
     1    1    2 2
     2    1    3 1
     3    1    4 1
     4    1    8 1
     5    3   32 1
     6    4   33 1
     7    5    6 2
     8    5    7 1
     9    5    8 1
    10    5   12 1
    11    8   34 1
    12    8   35 1
    13    9   10 2
    14    9   11 1
    15    9   12 1
    16    9   13 1
    17   13   14 1
    18   14   15 1
    19   14   36 1
    20   14   37 1
    21   15   16 1
    22   15   17 1
    23   15   38 1
    24   16   21 1
    25   17   18 1
    26   17   19 1
    27   17   39 1
    28   18   40 1
    29   19   20 1
    30   19   21 1
    31   19   41 1
    32   20   42 1
    33   21   22 1
    34   21   43 1
    35   22   23 ar
    36   22   31 ar
    37   23   24 ar
    38   23   44 1
    39   24   25 ar
    40   25   26 ar
    41   25   31 ar
    42   26   27 1
    43   26   28 ar
    44   27   45 1
    45   27   46 1
    46   28   29 ar
    47   28   48 1
    48   29   30 ar
    49   29   47 1
    50   30   31 ar
@<TRIPOS>SUBSTRUCTURE
     1 ACP         1 GROUP 0 A     ****
@<TRIPOS>MOLECULE
[[5-(6-amino-1,8-dihydropurine-6,8-diylium-7-id-9-yl)-3,4-dihydroxy-tetrahydrofuran-2-yl]methoxy-oxido-phosphoryl]oxy-(phosphonomethyl)phosphinate
   48    50     1     0     0
SMALL
USER_CHARGES

@<TRIPOS>ATOM
      1 PG         -0.6132   -9.4699    5.3244 P.3       1 ACP         1.6558
      2 O1G        -1.6072   -8.6704    6.1117 O.2       1 ACP        -0.9020
      3 O2G        -1.1236  -10.9219    4.8330 O.3       1 ACP        -0.8036
      4 O3G         0.7746   -9.7932    6.0855 O.3       1 ACP        -0.8036
      5 PB          0.7813   -7.0396    3.7499 P.3       1 ACP         1.4945
      6 O1B         1.0749   -6.7242    2.3015 O.co2     1 ACP        -0.8481
      7 O2B         1.8621   -7.0644    4.8058 O.co2     1 ACP        -0.8481
      8 C3B        -0.0685   -8.6819    3.7922 C.3       1 ACP        -0.6636
      9 PA         -0.5283   -4.5720    4.7510 P.3       1 ACP         1.6023
     10 O1A         0.4835   -4.3793    5.8599 O.co2     1 ACP        -0.8673
     11 O2A        -1.9777   -4.1878    4.9548 O.co2     1 ACP        -0.8673
     12 O3A        -0.4709   -6.1295    4.2627 O.3       1 ACP        -0.8150
     13 O5'         0.0100   -3.8402    3.3910 O.3       1 ACP        -0.5522
     14 C5'        -0.7840   -3.8935    2.2172 C.3       1 ACP         0.2181
     15 C4'        -0.0724   -3.1466    1.1027 C.3       1 ACP         0.0915
     16 O4'        -0.8674   -3.1929   -0.0945 O.3       1 ACP        -0.3675
     17 C3'         0.1338   -1.6715    1.4027 C.3       1 ACP         0.0748
     18 O3'         1.2893   -1.4445    2.1808 O.3       1 ACP        -0.5646
     19 C2'         0.2158   -1.0724    0.0128 C.3       1 ACP         0.0804
     20 O2'         1.5141   -1.2448   -0.5513 O.3       1 ACP        -0.5882
     21 C1'        -0.7897   -1.9176   -0.7583 C.3       1 ACP         0.3809
     22 N9         -2.1040   -1.3333   -0.7704 N.pl3     1 ACP        -0.4412
     23 C8         -3.2124   -1.5345    0.2719 C.ar      1 ACP         0.1936
     24 N7         -4.2964   -0.8234   -0.0828 N.2       1 ACP        -0.2746
     25 C5         -3.8754   -0.2386   -1.2478 C.ar      1 ACP        -0.1386
     26 C6         -4.7432    0.6719   -2.0470 C.ar      1 ACP         0.4778
     27 N6         -5.9725    0.9415   -1.6366 N.pl3     1 ACP        -0.8290
     28 N1         -4.1703    1.1517   -3.1536 N.pl3     1 ACP        -0.6985
     29 C2         -2.8174    0.7994   -3.5215 C.ar      1 ACP         0.6179
     30 N3         -2.0475    0.0097   -2.8393 N.ar      1 ACP        -0.5105
     31 C4         -2.6278   -0.4836   -1.7071 C.ar      1 ACP         0.2753
     32 HOG2       -1.3983  -11.5814    5.5051 H         1 ACP         0.4487
     33 HOG3        0.7497  -10.3038    6.9226 H         1 ACP         0.4487
     34 H3B1        0.6101   -9.3773    3.2853 H         1 ACP         0.1088
     35 H3B2       -0.9535   -8.5772    3.1543 H         1 ACP         0.1088
     36 H5'1       -0.9357   -4.9414    1.9397 H         1 ACP         0.0327
     37 H5'2       -1.7557   -3.4349    2.4259 H         1 ACP         0.0327
     38 H4'         0.8883   -3.6447    0.8783 H         1 ACP         0.1275
     39 H3'        -0.7368   -1.2359    1.9871 H         1 ACP         0.0637
     40 HO3'        1.3407   -0.4871    2.3218 H         1 ACP         0.4127
     41 H2'        -0.0343   -0.0280    0.0196 H         1 ACP         0.0692
     42 HO2'        1.4978   -0.8409   -1.4361 H         1 ACP         0.4431
     43 H1'        -0.5175   -2.1046   -1.7826 H         1 ACP         0.1199
     44 H8         -3.2310   -2.1319    1.1889 H         1 ACP         0.2941
     45 HN61       -6.3230    0.5316   -0.7829 H         1 ACP         0.4754
     46 HN62       -6.5628    1.5584   -2.1760 H         1 ACP         0.4754
     47 H2         -2.4822    1.2710   -4.4579 H         1 ACP         0.0886
     48 H48        -4.7200    1.7780   -3.7346 H         1 ACP         0.4707
@<TRIPOS>BOND
     1    1    2 2
     2    1    3 1
     3    1    4 1
     4    1    8 1
     5    3   32 1
     6    4   33 1
     7    5    6 2
     8    5    7 1
     9    5    8 1
    10    5   12 1
    11    8   34 1
    12    8   35 1
    13    9   10 2
    14    9   11 1
    15    9   12 1
    16    9   13 1
    17   13   14 1
    18   14   15 1
    19   14   36 1
    20   14   37 1
    21   15   16 1
    22   15   17 1
    23   15   38 1
    24   16   21 1
    25   17   18 1
    26   17   19 1
    27   17   39 1
    28   18   40 1
    29   19   20 1
    30   19   21 1
    31   19   41 1
    32   20   42 1
    33   21   22 1
    34   21   43 1
    35   22   23 ar
    36   22   31 ar
    37   23   24 ar
    38   23   44 1
    39   24   25 ar
    40   25   26 ar
    41   25   31 ar
    42   26   27 1
    43   26   28 ar
    44   27   45 1
    45   27   46 1
    46   28   29 ar
    47   28   48 1
    48   29   30 ar
    49   29   47 1
    50   30   31 ar
@<TRIPOS>SUBSTRUCTURE
     1 ACP         1 GROUP 0 A     ****
@<TRIPOS>MOLECULE
[[5-(6-amino-1,8-dihydropurine-6,8-diylium-7-id-9-yl)-3,4-dihydroxy-tetrahydrofuran-2-yl]methoxy-oxido-phosphoryl]oxy-(phosphonomethyl)phosphinate
   48    50     1     0     0
SMALL
USER_CHARGES

@<TRIPOS>ATOM
      1 PG         -2.4030   -3.0917   -5.0052 P.3       1 ACP         1.6558
      2 O1G        -2.2706   -4.5373   -5.3797 O.2       1 ACP        -0.9020
      3 O2G        -3.8645   -2.4448   -5.2410 O.3       1 ACP        -0.8036
      4 O3G        -1.4108   -2.0810   -5.7821 O.3       1 ACP        -0.8036
      5 PB         -0.4463   -3.1009   -2.4554 P.3       1 ACP         1.4945
      6 O1B        -0.2085   -4.5884   -2.5740 O.co2     1 ACP        -0.8481
      7 O2B        -0.4371   -2.3855   -1.1243 O.co2     1 ACP        -0.8481
      8 C3B        -2.0697   -2.7389   -3.2645 C.3       1 ACP        -0.6636
      9 PA          2.1358   -2.2685   -3.6578 P.3       1 ACP         1.6023
     10 O1A         2.4970   -1.2612   -4.7281 O.co2     1 ACP        -0.8673
     11 O2A         2.6457   -3.6911   -3.7347 O.co2     1 ACP        -0.8673
     12 O3A         0.5094   -2.3101   -3.5139 O.3       1 ACP        -0.8150
     13 O5'         2.5238   -1.6632   -2.1888 O.3       1 ACP        -0.5522
     14 C5'         2.2816   -0.2918   -1.9206 C.3       1 ACP         0.2181
     15 C4'         2.7248    0.0226   -0.4980 C.3       1 ACP         0.0915
     16 O4'         2.4697    1.4219   -0.2462 O.3       1 ACP        -0.3675
     17 C3'         1.9404   -0.7419    0.5596 C.3       1 ACP         0.0748
     18 O3'         2.7418   -0.8086    1.7389 O.3       1 ACP        -0.5646
     19 C2'         0.7477    0.1630    0.7858 C.3       1 ACP         0.0804
     20 O2'         0.1373   -0.0577    2.0407 O.3       1 ACP        -0.5882
     21 C1'         1.3733    1.5427    0.6747 C.3       1 ACP         0.3809
     22 N9          0.4520    2.5240    0.1767 N.pl3     1 ACP        -0.4412
     23 C8         -0.4598    3.4379    1.0068 C.ar      1 ACP         0.1936
     24 N7         -1.1770    4.2228    0.1845 N.2       1 ACP        -0.2746
     25 C5         -0.7330    3.8149   -1.0455 C.ar      1 ACP        -0.1386
     26 C6         -1.2413    4.4029   -2.3169 C.ar      1 ACP         0.4778
     27 N6         -2.1578    5.3575   -2.2831 N.pl3     1 ACP        -0.8290
     28 N1         -0.6977    3.8860   -3.4216 N.pl3     1 ACP        -0.6985
     29 C2          0.3002    2.8419   -3.3591 C.ar      1 ACP         0.6179
     30 N3          0.7548    2.3183   -2.2631 N.ar      1 ACP        -0.5105
     31 C4          0.2027    2.8430   -1.1309 C.ar      1 ACP         0.2753
     32 HOG2       -4.2388   -2.4344   -6.1476 H         1 ACP         0.4487
     33 HOG3       -1.4620   -2.0229   -6.7599 H         1 ACP         0.4487
     34 H3B1       -2.2465   -1.6694   -3.1038 H         1 ACP         0.1088
     35 H3B2       -2.8226   -3.2787   -2.6790 H         1 ACP         0.1088
     36 H5'1        2.8430    0.3138   -2.6391 H         1 ACP         0.0327
     37 H5'2        1.2126   -0.0907   -2.0421 H         1 ACP         0.0327
     38 H4'         3.8046   -0.1390   -0.4011 H         1 ACP         0.1275
     39 H3'         1.6787   -1.7627    0.2719 H         1 ACP         0.0637
     40 HO3'        2.2231   -1.2979    2.3952 H         1 ACP         0.4127
     41 H2'         0.0002   -0.0084   -0.0014 H         1 ACP         0.0692
     42 HO2'       -0.6132    0.5577    2.1063 H         1 ACP         0.4431
     43 H1'         1.7718    1.9211    1.6015 H         1 ACP         0.1199
     44 H8         -0.5892    3.5248    2.0902 H         1 ACP         0.2941
     45 HN61       -2.5128    5.6880   -1.3974 H         1 ACP         0.4754
     46 HN62       -2.5040    5.7581   -3.1431 H         1 ACP         0.4754
     47 H2          0.6550    2.5166   -4.3490 H         1 ACP         0.0886
     48 H48        -1.0101    4.2527   -4.3160 H         1 ACP         0.4707
@<TRIPOS>BOND
     1    1    2 2
     2    1    3 1
     3    1    4 1
     4    1    8 1
     5    3   32 1
     6    4   33 1
     7    5    6 2
     8    5    7 1
     9    5    8 1
    10    5   12 1
    11    8   34 1
    12    8   35 1
    13    9   10 2
    14    9   11 1
    15    9   12 1
    16    9   13 1
    17   13   14 1
    18   14   15 1
    19   14   36 1
    20   14   37 1
    21   15   16 1
    22   15   17 1
    23   15   38 1
    24   16   21 1
    25   17   18 1
    26   17   19 1
    27   17   39 1
    28   18   40 1
    29   19   20 1
    30   19   21 1
    31   19   41 1
    32   20   42 1
    33   21   22 1
    34   21   43 1
    35   22   23 ar
    36   22   31 ar
    37   23   24 ar
    38   23   44 1
    39   24   25 ar
    40   25   26 ar
    41   25   31 ar
    42   26   27 1
    43   26   28 ar
    44   27   45 1
    45   27   46 1
    46   28   29 ar
    47   28   48 1
    48   29   30 ar
    49   29   47 1
    50   30   31 ar
@<TRIPOS>SUBSTRUCTURE
     1 ACP         1 GROUP 0 A     ****
@<TRIPOS>MOLECULE
[[5-(6-amino-1,8-dihydropurine-6,8-diylium-7-id-9-yl)-3,4-dihydroxy-tetrahydrofuran-2-yl]methoxy-oxido-phosphoryl]oxy-(phosphonomethyl)phosphinate
   48    50     1     0     0
SMALL
USER_CHARGES

@<TRIPOS>ATOM
      1 PG          1.4855   -4.9953    6.1912 P.3       1 ACP         1.6558
      2 O1G         1.4050   -4.1770    4.9377 O.2       1 ACP        -0.9020
      3 O2G         0.4629   -4.5671    7.3664 O.3       1 ACP        -0.8036
      4 O3G         2.9251   -5.0005    6.9241 O.3       1 ACP        -0.8036
      5 PB         -0.4754   -7.3821    5.3034 P.3       1 ACP         1.4945
      6 O1B        -1.5556   -6.9226    6.2550 O.co2     1 ACP        -0.8481
      7 O2B        -0.2793   -8.8375    4.9470 O.co2     1 ACP        -0.8481
      8 C3B         1.1360   -6.7529    5.9580 C.3       1 ACP        -0.6636
      9 PA         -1.7213   -6.2745    2.8484 P.3       1 ACP         1.6023
     10 O1A        -2.8743   -5.5640    3.5241 O.co2     1 ACP        -0.8673
     11 O2A        -1.9411   -7.5856    2.1255 O.co2     1 ACP        -0.8673
     12 O3A        -0.5281   -6.4829    3.9441 O.3       1 ACP        -0.8150
     13 O5'        -0.9728   -5.2428    1.8236 O.3       1 ACP        -0.5522
     14 C5'        -0.7840   -3.8935    2.2172 C.3       1 ACP         0.2181
     15 C4'        -0.0724   -3.1466    1.1027 C.3       1 ACP         0.0915
     16 O4'        -0.8674   -3.1929   -0.0945 O.3       1 ACP        -0.3675
     17 C3'         0.1338   -1.6715    1.4027 C.3       1 ACP         0.0748
     18 O3'         1.2893   -1.4445    2.1808 O.3       1 ACP        -0.5646
     19 C2'         0.2158   -1.0724    0.0128 C.3       1 ACP         0.0804
     20 O2'         1.5141   -1.2448   -0.5513 O.3       1 ACP        -0.5882
     21 C1'        -0.7897   -1.9176   -0.7583 C.3       1 ACP         0.3809
     22 N9         -2.1040   -1.3333   -0.7704 N.pl3     1 ACP        -0.4412
     23 C8         -3.2124   -1.5345    0.2719 C.ar      1 ACP         0.1936
     24 N7         -4.2964   -0.8234   -0.0828 N.2       1 ACP        -0.2746
     25 C5         -3.8754   -0.2386   -1.2478 C.ar      1 ACP        -0.1386
     26 C6         -4.7432    0.6719   -2.0470 C.ar      1 ACP         0.4778
     27 N6         -5.9725    0.9415   -1.6366 N.pl3     1 ACP        -0.8290
     28 N1         -4.1703    1.1517   -3.1536 N.pl3     1 ACP        -0.6985
     29 C2         -2.8174    0.7994   -3.5215 C.ar      1 ACP         0.6179
     30 N3         -2.0475    0.0097   -2.8393 N.ar      1 ACP        -0.5105
     31 C4         -2.6278   -0.4836   -1.7071 C.ar      1 ACP         0.2753
     32 HOG2        0.5168   -3.6600    7.7358 H         1 ACP         0.4487
     33 HOG3        3.3031   -4.1505    7.2350 H         1 ACP         0.4487
     34 H3B1        1.9035   -7.1570    5.2882 H         1 ACP         0.1088
     35 H3B2        1.2735   -7.2381    6.9310 H         1 ACP         0.1088
     36 H5'1       -1.7614   -3.4428    2.4166 H         1 ACP         0.0327
     37 H5'2       -0.1870   -3.8724    3.1344 H         1 ACP         0.0327
     38 H4'         0.8883   -3.6447    0.8783 H         1 ACP         0.1275
     39 H3'        -0.7368   -1.2359    1.9871 H         1 ACP         0.0637
     40 HO3'        1.3407   -0.4871    2.3218 H         1 ACP         0.4127
     41 H2'        -0.0343   -0.0280    0.0196 H         1 ACP         0.0692
     42 HO2'        1.4978   -0.8409   -1.4361 H         1 ACP         0.4431
     43 H1'        -0.5175   -2.1046   -1.7826 H         1 ACP         0.1199
     44 H8         -3.2310   -2.1319    1.1889 H         1 ACP         0.2941
     45 HN61       -6.3230    0.5316   -0.7829 H         1 ACP         0.4754
     46 HN62       -6.5628    1.5584   -2.1760 H         1 ACP         0.4754
     47 H2         -2.4822    1.2710   -4.4579 H         1 ACP         0.0886
     48 H48        -4.7200    1.7780   -3.7346 H         1 ACP         0.4707
@<TRIPOS>BOND
     1    1    2 2
     2    1    3 1
     3    1    4 1
     4    1    8 1
     5    3   32 1
     6    4   33 1
     7    5    6 2
     8    5    7 1
     9    5    8 1
    10    5   12 1
    11    8   34 1
    12    8   35 1
    13    9   10 2
    14    9   11 1
    15    9   12 1
    16    9   13 1
    17   13   14 1
    18   14   15 1
    19   14   36 1
    20   14   37 1
    21   15   16 1
    22   15   17 1
    23   15   38 1
    24   16   21 1
    25   17   18 1
    26   17   19 1
    27   17   39 1
    28   18   40 1
    29   19   20 1
    30   19   21 1
    31   19   41 1
    32   20   42 1
    33   21   22 1
    34   21   43 1
    35   22   23 ar
    36   22   31 ar
    37   23   24 ar
    38   23   44 1
    39   24   25 ar
    40   25   26 ar
    41   25   31 ar
    42   26   27 1
    43   26   28 ar
    44   27   45 1
    45   27   46 1
    46   28   29 ar
    47   28   48 1
    48   29   30 ar
    49   29   47 1
    50   30   31 ar
@<TRIPOS>SUBSTRUCTURE
     1 ACP         1 GROUP 0 A     ****
@<TRIPOS>MOLECULE
[[5-(6-amino-1,8-dihydropurine-6,8-diylium-7-id-9-yl)-3,4-dihydroxy-tetrahydrofuran-2-yl]methoxy-oxido-phosphoryl]oxy-(phosphonomethyl)phosphinate
   48    50     1     0     0
SMALL
USER_CHARGES

@<TRIPOS>ATOM
      1 PG          5.8174   -4.1693   -2.7546 P.3       1 ACP         1.6558
      2 O1G         6.4689   -5.4679   -3.1242 O.2       1 ACP        -0.9020
      3 O2G         5.8547   -3.7968   -1.1830 O.3       1 ACP        -0.8036
      4 O3G         4.2528   -4.0456   -3.1369 O.3       1 ACP        -0.8036
      5 PB          5.9339   -0.9967   -3.2556 P.3       1 ACP         1.4945
      6 O1B         6.7948   -0.0693   -4.0817 O.co2     1 ACP        -0.8481
      7 O2B         5.7605   -0.8229   -1.7646 O.co2     1 ACP        -0.8481
      8 C3B         6.5498   -2.7171   -3.5421 C.3       1 ACP        -0.6636
      9 PA          3.3317   -0.0541   -4.3262 P.3       1 ACP         1.6023
     10 O1A         2.1115   -0.7775   -4.8538 O.co2     1 ACP        -0.8673
     11 O2A         3.9771    1.0549   -5.1285 O.co2     1 ACP        -0.8673
     12 O3A         4.4753   -1.1630   -3.9655 O.3       1 ACP        -0.8150
     13 O5'         3.0199    0.5139   -2.8245 O.3       1 ACP        -0.5522
     14 C5'         2.2816   -0.2918   -1.9206 C.3       1 ACP         0.2181
     15 C4'         2.7248    0.0226   -0.4980 C.3       1 ACP         0.0915
     16 O4'         2.4697    1.4219   -0.2462 O.3       1 ACP        -0.3675
     17 C3'         1.9404   -0.7419    0.5596 C.3       1 ACP         0.0748
     18 O3'         2.7418   -0.8086    1.7389 O.3       1 ACP        -0.5646
     19 C2'         0.7477    0.1630    0.7858 C.3       1 ACP         0.0804
     20 O2'         0.1373   -0.0577    2.0407 O.3       1 ACP        -0.5882
     21 C1'         1.3733    1.5427    0.6747 C.3       1 ACP         0.3809
     22 N9          0.4520    2.5240    0.1767 N.pl3     1 ACP        -0.4412
     23 C8         -1.0660    2.5608    0.3999 C.ar      1 ACP         0.1936
     24 N7         -1.5852    3.6333   -0.2221 N.2       1 ACP        -0.2746
     25 C5         -0.4682    4.1996   -0.7771 C.ar      1 ACP        -0.1386
     26 C6         -0.5216    5.4476   -1.5899 C.ar      1 ACP         0.4778
     27 N6         -1.6813    6.0510   -1.7982 N.pl3     1 ACP        -0.8290
     28 N1          0.6621    5.8575   -2.0523 N.pl3     1 ACP        -0.6985
     29 C2          1.8795    5.1301   -1.7717 C.ar      1 ACP         0.6179
     30 N3          1.9458    4.0434   -1.0670 N.ar      1 ACP        -0.5105
     31 C4          0.7388    3.6199   -0.5917 C.ar      1 ACP         0.2753
     32 HOG2        5.4301   -4.4044   -0.5406 H         1 ACP         0.4487
     33 HOG3        3.6175   -4.6860   -2.7519 H         1 ACP         0.4487
     34 H3B1        7.6127   -2.6971   -3.2764 H         1 ACP         0.1088
     35 H3B2        6.4942   -2.8782   -4.6247 H         1 ACP         0.1088
     36 H5'1        1.2154   -0.0780   -2.0455 H         1 ACP         0.0327
     37 H5'2        2.4646   -1.3453   -2.1548 H         1 ACP         0.0327
     38 H4'         3.8046   -0.1390   -0.4011 H         1 ACP         0.1275
     39 H3'         1.6787   -1.7627    0.2719 H         1 ACP         0.0637
     40 HO3'        3.5553   -1.2733    1.4913 H         1 ACP         0.4127
     41 H2'         0.0002   -0.0084   -0.0014 H         1 ACP         0.0692
     42 HO2'        0.8091    0.1203    2.7213 H         1 ACP         0.4431
     43 H1'         1.7718    1.9211    1.6015 H         1 ACP         0.1199
     44 H8         -1.7235    1.8833    0.9537 H         1 ACP         0.2941
     45 HN61       -2.5296    5.6672   -1.4072 H         1 ACP         0.4754
     46 HN62       -1.7205    6.8969   -2.3483 H         1 ACP         0.4754
     47 H2          2.7750    5.5878   -2.2190 H         1 ACP         0.0886
     48 H48         0.6808    6.7046   -2.6128 H         1 ACP         0.4707
@<TRIPOS>BOND
     1    1    2 2
     2    1    3 1
     3    1    4 1
     4    1    8 1
     5    3   32 1
     6    4   33 1
     7    5    6 2
     8    5    7 1
     9    5    8 1
    10    5   12 1
    11    8   34 1
    12    8   35 1
    13    9   10 2
    14    9   11 1
    15    9   12 1
    16    9   13 1
    17   13   14 1
    18   14   15 1
    19   14   36 1
    20   14   37 1
    21   15   16 1
    22   15   17 1
    23   15   38 1
    24   16   21 1
    25   17   18 1
    26   17   19 1
    27   17   39 1
    28   18   40 1
    29   19   20 1
    30   19   21 1
    31   19   41 1
    32   20   42 1
    33   21   22 1
    34   21   43 1
    35   22   23 ar
    36   22   31 ar
    37   23   24 ar
    38   23   44 1
    39   24   25 ar
    40   25   26 ar
    41   25   31 ar
    42   26   27 1
    43   26   28 ar
    44   27   45 1
    45   27   46 1
    46   28   29 ar
    47   28   48 1
    48   29   30 ar
    49   29   47 1
    50   30   31 ar
@<TRIPOS>SUBSTRUCTURE
     1 ACP         1 GROUP 0 A     ****
@<TRIPOS>MOLECULE
[[5-(6-amino-1,8-dihydropurine-6,8-diylium-7-id-9-yl)-3,4-dihydroxy-tetrahydrofuran-2-yl]methoxy-oxido-phosphoryl]oxy-(phosphonomethyl)phosphinate
   48    50     1     0     0
SMALL
USER_CHARGES

@<TRIPOS>ATOM
      1 PG         -0.3899   -4.1422   -5.0995 P.3       1 ACP         1.6558
      2 O1G        -0.0073   -4.0946   -3.6509 O.2       1 ACP        -0.9020
      3 O2G        -1.8122   -3.4682   -5.4642 O.3       1 ACP        -0.8036
      4 O3G        -0.4958   -5.6216   -5.7399 O.3       1 ACP        -0.8036
      5 PB          1.1551   -1.4948   -6.0659 P.3       1 ACP         1.4945
      6 O1B        -0.1407   -0.7399   -6.2523 O.co2     1 ACP        -0.8481
      7 O2B         2.3730   -1.2312   -6.9208 O.co2     1 ACP        -0.8481
      8 C3B         0.7643   -3.2973   -6.2038 C.3       1 ACP        -0.6636
      9 PA          2.8590   -2.1285   -3.7205 P.3       1 ACP         1.6023
     10 O1A         4.1100   -1.4231   -4.1979 O.co2     1 ACP        -0.8673
     11 O2A         2.7489   -3.6360   -3.7934 O.co2     1 ACP        -0.8673
     12 O3A         1.5729   -1.4791   -4.4897 O.3       1 ACP        -0.8150
     13 O5'         2.5238   -1.6632   -2.1888 O.3       1 ACP        -0.5522
     14 C5'         2.2816   -0.2918   -1.9206 C.3       1 ACP         0.2181
     15 C4'         2.7248    0.0226   -0.4980 C.3       1 ACP         0.0915
     16 O4'         2.4697    1.4219   -0.2462 O.3       1 ACP        -0.3675
     17 C3'         1.9404   -0.7419    0.5596 C.3       1 ACP         0.0748
     18 O3'         2.7418   -0.8086    1.7389 O.3       1 ACP        -0.5646
     19 C2'         0.7477    0.1630    0.7858 C.3       1 ACP         0.0804
     20 O2'         0.1373   -0.0577    2.0407 O.3       1 ACP        -0.5882
     21 C1'         1.3733    1.5427    0.6747 C.3       1 ACP         0.3809
     22 N9          0.4520    2.5240    0.1767 N.pl3     1 ACP        -0.4412
     23 C8         -0.3054    2.4845   -1.1576 C.ar      1 ACP         0.1936
     24 N7         -1.0755    3.5806   -1.2691 N.2       1 ACP        -0.2746
     25 C5         -0.8043    4.2306   -0.0942 C.ar      1 ACP        -0.1386
     26 C6         -1.4324    5.5335    0.2646 C.ar      1 ACP         0.4778
     27 N6         -2.2885    6.1054   -0.5675 N.pl3     1 ACP        -0.8290
     28 N1         -1.0537    6.0229    1.4478 N.pl3     1 ACP        -0.6985
     29 C2         -0.1096    5.3242    2.2908 C.ar      1 ACP         0.6179
     30 N3          0.4468    4.1904    1.9960 N.ar      1 ACP        -0.5105
     31 C4          0.0631    3.6855    0.7877 C.ar      1 ACP         0.2753
     32 HOG2       -2.6265   -3.8224   -5.0477 H         1 ACP         0.4487
     33 HOG3       -1.1367   -6.2592   -5.3595 H         1 ACP         0.4487
     34 H3B1        1.7284   -3.8136   -6.1328 H         1 ACP         0.1088
     35 H3B2        0.3967   -3.4463   -7.2254 H         1 ACP         0.1088
     36 H5'1        2.8430    0.3138   -2.6391 H         1 ACP         0.0327
     37 H5'2        1.2126   -0.0907   -2.0421 H         1 ACP         0.0327
     38 H4'         3.8046   -0.1390   -0.4011 H         1 ACP         0.1275
     39 H3'         1.6787   -1.7627    0.2719 H         1 ACP         0.0637
     40 HO3'        2.2231   -1.2979    2.3952 H         1 ACP         0.4127
     41 H2'         0.0002   -0.0084   -0.0014 H         1 ACP         0.0692
     42 HO2'       -0.1554   -0.9852    2.0577 H         1 ACP         0.4431
     43 H1'         1.7718    1.9211    1.6015 H         1 ACP         0.1199
     44 H8         -0.2991    1.7413   -1.9611 H         1 ACP         0.2941
     45 HN61       -2.5167    5.6603   -1.4447 H         1 ACP         0.4754
     46 HN62       -2.7159    6.9882   -0.3270 H         1 ACP         0.4754
     47 H2          0.1059    5.8491    3.2340 H         1 ACP         0.0886
     48 H48        -1.4532    6.9099    1.7401 H         1 ACP         0.4707
@<TRIPOS>BOND
     1    1    2 2
     2    1    3 1
     3    1    4 1
     4    1    8 1
     5    3   32 1
     6    4   33 1
     7    5    6 2
     8    5    7 1
     9    5    8 1
    10    5   12 1
    11    8   34 1
    12    8   35 1
    13    9   10 2
    14    9   11 1
    15    9   12 1
    16    9   13 1
    17   13   14 1
    18   14   15 1
    19   14   36 1
    20   14   37 1
    21   15   16 1
    22   15   17 1
    23   15   38 1
    24   16   21 1
    25   17   18 1
    26   17   19 1
    27   17   39 1
    28   18   40 1
    29   19   20 1
    30   19   21 1
    31   19   41 1
    32   20   42 1
    33   21   22 1
    34   21   43 1
    35   22   23 ar
    36   22   31 ar
    37   23   24 ar
    38   23   44 1
    39   24   25 ar
    40   25   26 ar
    41   25   31 ar
    42   26   27 1
    43   26   28 ar
    44   27   45 1
    45   27   46 1
    46   28   29 ar
    47   28   48 1
    48   29   30 ar
    49   29   47 1
    50   30   31 ar
@<TRIPOS>SUBSTRUCTURE
     1 ACP         1 GROUP 0 A     ****
@<TRIPOS>MOLECULE
[[5-(6-amino-1,8-dihydropurine-6,8-diylium-7-id-9-yl)-3,4-dihydroxy-tetrahydrofuran-2-yl]methoxy-oxido-phosphoryl]oxy-(phosphonomethyl)phosphinate
   48    50     1     0     0
SMALL
USER_CHARGES

@<TRIPOS>ATOM
      1 PG         -4.6421   -2.5405    6.4895 P.3       1 ACP         1.6558
      2 O1G        -4.4112   -2.5000    7.9702 O.2       1 ACP        -0.9020
      3 O2G        -6.0664   -1.9617    5.9931 O.3       1 ACP        -0.8036
      4 O3G        -4.5737   -4.0079    5.8175 O.3       1 ACP        -0.8036
      5 PB         -1.6313   -1.9333    5.5425 P.3       1 ACP         1.4945
      6 O1B        -1.1587   -1.7629    6.9677 O.co2     1 ACP        -0.8481
      7 O2B        -1.0158   -1.1717    4.3916 O.co2     1 ACP        -0.8481
      8 C3B        -3.4484   -1.5888    5.5225 C.3       1 ACP        -0.6636
      9 PA         -0.5283   -4.5720    4.7510 P.3       1 ACP         1.6023
     10 O1A        -1.1738   -5.8924    4.3898 O.co2     1 ACP        -0.8673
     11 O2A         0.5701   -4.5098    5.7900 O.co2     1 ACP        -0.8673
     12 O3A        -1.7033   -3.5212    5.1784 O.3       1 ACP        -0.8150
     13 O5'         0.0100   -3.8402    3.3910 O.3       1 ACP        -0.5522
     14 C5'        -0.7840   -3.8935    2.2172 C.3       1 ACP         0.2181
     15 C4'        -0.0724   -3.1466    1.1027 C.3       1 ACP         0.0915
     16 O4'        -0.8674   -3.1929   -0.0945 O.3       1 ACP        -0.3675
     17 C3'         0.1338   -1.6715    1.4027 C.3       1 ACP         0.0748
     18 O3'         1.2893   -1.4445    2.1808 O.3       1 ACP        -0.5646
     19 C2'         0.2158   -1.0724    0.0128 C.3       1 ACP         0.0804
     20 O2'         1.5141   -1.2448   -0.5513 O.3       1 ACP        -0.5882
     21 C1'        -0.7897   -1.9176   -0.7583 C.3       1 ACP         0.3809
     22 N9         -2.1040   -1.3333   -0.7704 N.pl3     1 ACP        -0.4412
     23 C8         -3.2124   -1.5345    0.2719 C.ar      1 ACP         0.1936
     24 N7         -4.2964   -0.8234   -0.0828 N.2       1 ACP        -0.2746
     25 C5         -3.8754   -0.2386   -1.2478 C.ar      1 ACP        -0.1386
     26 C6         -4.7432    0.6719   -2.0470 C.ar      1 ACP         0.4778
     27 N6         -5.9725    0.9415   -1.6366 N.pl3     1 ACP        -0.8290
     28 N1         -4.1703    1.1517   -3.1536 N.pl3     1 ACP        -0.6985
     29 C2         -2.8174    0.7994   -3.5215 C.ar      1 ACP         0.6179
     30 N3         -2.0475    0.0097   -2.8393 N.ar      1 ACP        -0.5105
     31 C4         -2.6278   -0.4836   -1.7071 C.ar      1 ACP         0.2753
     32 HOG2       -6.8900   -2.3832    6.3187 H         1 ACP         0.4487
     33 HOG3       -5.2007   -4.6988    6.1201 H         1 ACP         0.4487
     34 H3B1       -3.7484   -1.6530    4.4705 H         1 ACP         0.1088
     35 H3B2       -3.5574   -0.5403    5.8223 H         1 ACP         0.1088
     36 H5'1       -0.9357   -4.9414    1.9397 H         1 ACP         0.0327
     37 H5'2       -1.7557   -3.4349    2.4259 H         1 ACP         0.0327
     38 H4'         0.8883   -3.6447    0.8783 H         1 ACP         0.1275
     39 H3'        -0.7368   -1.2359    1.9871 H         1 ACP         0.0637
     40 HO3'        1.3407   -0.4871    2.3218 H         1 ACP         0.4127
     41 H2'        -0.0343   -0.0280    0.0196 H         1 ACP         0.0692
     42 HO2'        2.1443   -0.7955    0.0378 H         1 ACP         0.4431
     43 H1'        -0.5175   -2.1046   -1.7826 H         1 ACP         0.1199
     44 H8         -3.2310   -2.1319    1.1889 H         1 ACP         0.2941
     45 HN61       -6.3230    0.5316   -0.7829 H         1 ACP         0.4754
     46 HN62       -6.5628    1.5584   -2.1760 H         1 ACP         0.4754
     47 H2         -2.4822    1.2710   -4.4579 H         1 ACP         0.0886
     48 H48        -4.7200    1.7780   -3.7346 H         1 ACP         0.4707
@<TRIPOS>BOND
     1    1    2 2
     2    1    3 1
     3    1    4 1
     4    1    8 1
     5    3   32 1
     6    4   33 1
     7    5    6 2
     8    5    7 1
     9    5    8 1
    10    5   12 1
    11    8   34 1
    12    8   35 1
    13    9   10 2
    14    9   11 1
    15    9   12 1
    16    9   13 1
    17   13   14 1
    18   14   15 1
    19   14   36 1
    20   14   37 1
    21   15   16 1
    22   15   17 1
    23   15   38 1
    24   16   21 1
    25   17   18 1
    26   17   19 1
    27   17   39 1
    28   18   40 1
    29   19   20 1
    30   19   21 1
    31   19   41 1
    32   20   42 1
    33   21   22 1
    34   21   43 1
    35   22   23 ar
    36   22   31 ar
    37   23   24 ar
    38   23   44 1
    39   24   25 ar
    40   25   26 ar
    41   25   31 ar
    42   26   27 1
    43   26   28 ar
    44   27   45 1
    45   27   46 1
    46   28   29 ar
    47   28   48 1
    48   29   30 ar
    49   29   47 1
    50   30   31 ar
@<TRIPOS>SUBSTRUCTURE
     1 ACP         1 GROUP 0 A     ****
@<TRIPOS>MOLECULE
[[5-(6-amino-1,8-dihydropurine-6,8-diylium-7-id-9-yl)-3,4-dihydroxy-tetrahydrofuran-2-yl]methoxy-oxido-phosphoryl]oxy-(phosphonomethyl)phosphinate
   48    50     1     0     0
SMALL
USER_CHARGES

@<TRIPOS>ATOM
      1 PG          4.1813   -1.1336   -7.1885 P.3       1 ACP         1.6558
      2 O1G         4.8541   -0.7563   -5.9031 O.2       1 ACP        -0.9020
      3 O2G         4.0132   -2.7200   -7.4443 O.3       1 ACP        -0.8036
      4 O3G         4.9086   -0.6077   -8.5317 O.3       1 ACP        -0.8036
      5 PB          1.1350   -0.9349   -6.1834 P.3       1 ACP         1.4945
      6 O1B         0.9662   -2.4361   -6.2222 O.co2     1 ACP        -0.8481
      7 O2B        -0.0102    0.0133   -6.4535 O.co2     1 ACP        -0.8481
      8 C3B         2.4956   -0.5054   -7.3602 C.3       1 ACP        -0.6636
      9 PA          2.3308    0.9611   -4.2388 P.3       1 ACP         1.6023
     10 O1A         1.0771    1.7604   -3.9568 O.co2     1 ACP        -0.8673
     11 O2A         3.4129    1.5166   -5.1392 O.co2     1 ACP        -0.8673
     12 O3A         1.8925   -0.5072   -4.8040 O.3       1 ACP        -0.8150
     13 O5'         3.0199    0.5139   -2.8245 O.3       1 ACP        -0.5522
     14 C5'         2.2816   -0.2918   -1.9206 C.3       1 ACP         0.2181
     15 C4'         2.7248    0.0226   -0.4980 C.3       1 ACP         0.0915
     16 O4'         2.4697    1.4219   -0.2462 O.3       1 ACP        -0.3675
     17 C3'         1.9404   -0.7419    0.5596 C.3       1 ACP         0.0748
     18 O3'         2.7418   -0.8086    1.7389 O.3       1 ACP        -0.5646
     19 C2'         0.7477    0.1630    0.7858 C.3       1 ACP         0.0804
     20 O2'         0.1373   -0.0577    2.0407 O.3       1 ACP        -0.5882
     21 C1'         1.3733    1.5427    0.6747 C.3       1 ACP         0.3809
     22 N9          0.4520    2.5240    0.1767 N.pl3     1 ACP        -0.4412
     23 C8         -1.0660    2.5608    0.3999 C.ar      1 ACP         0.1936
     24 N7         -1.5852    3.6333   -0.2221 N.2       1 ACP        -0.2746
     25 C5         -0.4682    4.1996   -0.7771 C.ar      1 ACP        -0.1386
     26 C6         -0.5216    5.4476   -1.5899 C.ar      1 ACP         0.4778
     27 N6         -1.6813    6.0510   -1.7982 N.pl3     1 ACP        -0.8290
     28 N1          0.6621    5.8575   -2.0523 N.pl3     1 ACP        -0.6985
     29 C2          1.8795    5.1301   -1.7717 C.ar      1 ACP         0.6179
     30 N3          1.9458    4.0434   -1.0670 N.ar      1 ACP        -0.5105
     31 C4          0.7388    3.6199   -0.5917 C.ar      1 ACP         0.2753
     32 HOG2        4.8159   -3.2822   -7.4855 H         1 ACP         0.4487
     33 HOG3        5.8292   -0.8917   -8.7159 H         1 ACP         0.4487
     34 H3B1        2.5489    0.5891   -7.3616 H         1 ACP         0.1088
     35 H3B2        2.1406   -0.8092   -8.3516 H         1 ACP         0.1088
     36 H5'1        1.2154   -0.0780   -2.0455 H         1 ACP         0.0327
     37 H5'2        2.4646   -1.3453   -2.1548 H         1 ACP         0.0327
     38 H4'         3.8046   -0.1390   -0.4011 H         1 ACP         0.1275
     39 H3'         1.6787   -1.7627    0.2719 H         1 ACP         0.0637
     40 HO3'        2.2231   -1.2979    2.3952 H         1 ACP         0.4127
     41 H2'         0.0002   -0.0084   -0.0014 H         1 ACP         0.0692
     42 HO2'       -0.1554   -0.9852    2.0577 H         1 ACP         0.4431
     43 H1'         1.7718    1.9211    1.6015 H         1 ACP         0.1199
     44 H8         -1.7235    1.8833    0.9537 H         1 ACP         0.2941
     45 HN61       -2.5296    5.6672   -1.4072 H         1 ACP         0.4754
     46 HN62       -1.7205    6.8969   -2.3483 H         1 ACP         0.4754
     47 H2          2.7750    5.5878   -2.2190 H         1 ACP         0.0886
     48 H48         0.6808    6.7046   -2.6128 H         1 ACP         0.4707
@<TRIPOS>BOND
     1    1    2 2
     2    1    3 1
     3    1    4 1
     4    1    8 1
     5    3   32 1
     6    4   33 1
     7    5    6 2
     8    5    7 1
     9    5    8 1
    10    5   12 1
    11    8   34 1
    12    8   35 1
    13    9   10 2
    14    9   11 1
    15    9   12 1
    16    9   13 1
    17   13   14 1
    18   14   15 1
    19   14   36 1
    20   14   37 1
    21   15   16 1
    22   15   17 1
    23   15   38 1
    24   16   21 1
    25   17   18 1
    26   17   19 1
    27   17   39 1
    28   18   40 1
    29   19   20 1
    30   19   21 1
    31   19   41 1
    32   20   42 1
    33   21   22 1
    34   21   43 1
    35   22   23 ar
    36   22   31 ar
    37   23   24 ar
    38   23   44 1
    39   24   25 ar
    40   25   26 ar
    41   25   31 ar
    42   26   27 1
    43   26   28 ar
    44   27   45 1
    45   27   46 1
    46   28   29 ar
    47   28   48 1
    48   29   30 ar
    49   29   47 1
    50   30   31 ar
@<TRIPOS>SUBSTRUCTURE
     1 ACP         1 GROUP 0 A     ****
@<TRIPOS>MOLECULE
[[5-(6-amino-1,8-dihydropurine-6,8-diylium-7-id-9-yl)-3,4-dihydroxy-tetrahydrofuran-2-yl]methoxy-oxido-phosphoryl]oxy-(phosphonomethyl)phosphinate
   48    50     1     0     0
SMALL
USER_CHARGES

@<TRIPOS>ATOM
      1 PG          2.5237   -4.5307   -4.1823 P.3       1 ACP         1.6558
      2 O1G         3.4761   -5.4636   -3.4969 O.2       1 ACP        -0.9020
      3 O2G         1.8435   -3.4134   -3.2340 O.3       1 ACP        -0.8036
      4 O3G         1.2617   -5.2355   -4.9036 O.3       1 ACP        -0.8036
      5 PB          4.6697   -2.3830   -5.2369 P.3       1 ACP         1.4945
      6 O1B         5.0015   -1.7616   -6.5738 O.co2     1 ACP        -0.8481
      7 O2B         5.7027   -3.1069   -4.4047 O.co2     1 ACP        -0.8481
      8 C3B         3.2633   -3.5528   -5.5098 C.3       1 ACP        -0.6636
      9 PA          4.4356   -0.0486   -3.4198 P.3       1 ACP         1.6023
     10 O1A         5.0324    0.9810   -4.3549 O.co2     1 ACP        -0.8673
     11 O2A         5.2456   -0.6069   -2.2700 O.co2     1 ACP        -0.8673
     12 O3A         3.8781   -1.2974   -4.3128 O.3       1 ACP        -0.8150
     13 O5'         3.0199    0.5139   -2.8245 O.3       1 ACP        -0.5522
     14 C5'         2.2816   -0.2918   -1.9206 C.3       1 ACP         0.2181
     15 C4'         2.7248    0.0226   -0.4980 C.3       1 ACP         0.0915
     16 O4'         2.4697    1.4219   -0.2462 O.3       1 ACP        -0.3675
     17 C3'         1.9404   -0.7419    0.5596 C.3       1 ACP         0.0748
     18 O3'         2.7418   -0.8086    1.7389 O.3       1 ACP        -0.5646
     19 C2'         0.7477    0.1630    0.7858 C.3       1 ACP         0.0804
     20 O2'         0.1373   -0.0577    2.0407 O.3       1 ACP        -0.5882
     21 C1'         1.3733    1.5427    0.6747 C.3       1 ACP         0.3809
     22 N9          0.4520    2.5240    0.1767 N.pl3     1 ACP        -0.4412
     23 C8         -0.3054    2.4845   -1.1576 C.ar      1 ACP         0.1936
     24 N7         -1.0755    3.5806   -1.2691 N.2       1 ACP        -0.2746
     25 C5         -0.8043    4.2306   -0.0942 C.ar      1 ACP        -0.1386
     26 C6         -1.4324    5.5335    0.2646 C.ar      1 ACP         0.4778
     27 N6         -2.2885    6.1054   -0.5675 N.pl3     1 ACP        -0.8290
     28 N1         -1.0537    6.0229    1.4478 N.pl3     1 ACP        -0.6985
     29 C2         -0.1096    5.3242    2.2908 C.ar      1 ACP         0.6179
     30 N3          0.4468    4.1904    1.9960 N.ar      1 ACP        -0.5105
     31 C4          0.0631    3.6855    0.7877 C.ar      1 ACP         0.2753
     32 HOG2        1.2986   -3.7047   -2.4723 H         1 ACP         0.4487
     33 HOG3        0.6405   -5.7668   -4.3616 H         1 ACP         0.4487
     34 H3B1        3.6061   -4.2498   -6.2828 H         1 ACP         0.1088
     35 H3B2        2.4587   -2.9550   -5.9530 H         1 ACP         0.1088
     36 H5'1        1.2154   -0.0780   -2.0455 H         1 ACP         0.0327
     37 H5'2        2.4646   -1.3453   -2.1548 H         1 ACP         0.0327
     38 H4'         3.8046   -0.1390   -0.4011 H         1 ACP         0.1275
     39 H3'         1.6787   -1.7627    0.2719 H         1 ACP         0.0637
     40 HO3'        3.5553   -1.2733    1.4913 H         1 ACP         0.4127
     41 H2'         0.0002   -0.0084   -0.0014 H         1 ACP         0.0692
     42 HO2'       -0.1554   -0.9852    2.0577 H         1 ACP         0.4431
     43 H1'         1.7718    1.9211    1.6015 H         1 ACP         0.1199
     44 H8         -0.2991    1.7413   -1.9611 H         1 ACP         0.2941
     45 HN61       -2.5167    5.6603   -1.4447 H         1 ACP         0.4754
     46 HN62       -2.7159    6.9882   -0.3270 H         1 ACP         0.4754
     47 H2          0.1059    5.8491    3.2340 H         1 ACP         0.0886
     48 H48        -1.4532    6.9099    1.7401 H         1 ACP         0.4707
@<TRIPOS>BOND
     1    1    2 2
     2    1    3 1
     3    1    4 1
     4    1    8 1
     5    3   32 1
     6    4   33 1
     7    5    6 2
     8    5    7 1
     9    5    8 1
    10    5   12 1
    11    8   34 1
    12    8   35 1
    13    9   10 2
    14    9   11 1
    15    9   12 1
    16    9   13 1
    17   13   14 1
    18   14   15 1
    19   14   36 1
    20   14   37 1
    21   15   16 1
    22   15   17 1
    23   15   38 1
    24   16   21 1
    25   17   18 1
    26   17   19 1
    27   17   39 1
    28   18   40 1
    29   19   20 1
    30   19   21 1
    31   19   41 1
    32   20   42 1
    33   21   22 1
    34   21   43 1
    35   22   23 ar
    36   22   31 ar
    37   23   24 ar
    38   23   44 1
    39   24   25 ar
    40   25   26 ar
    41   25   31 ar
    42   26   27 1
    43   26   28 ar
    44   27   45 1
    45   27   46 1
    46   28   29 ar
    47   28   48 1
    48   29   30 ar
    49   29   47 1
    50   30   31 ar
@<TRIPOS>SUBSTRUCTURE
     1 ACP         1 GROUP 0 A     ****
@<TRIPOS>MOLECULE
[[5-(6-amino-1,8-dihydropurine-6,8-diylium-7-id-9-yl)-3,4-dihydroxy-tetrahydrofuran-2-yl]methoxy-oxido-phosphoryl]oxy-(phosphonomethyl)phosphinate
   48    50     1     0     0
SMALL
USER_CHARGES

@<TRIPOS>ATOM
      1 PG          0.8770   -4.2443   -2.9249 P.3       1 ACP         1.6558
      2 O1G         0.0213   -3.0175   -3.0261 O.2       1 ACP        -0.9020
      3 O2G         0.1381   -5.6369   -3.2783 O.3       1 ACP        -0.8036
      4 O3G         1.5269   -4.5178   -1.4714 O.3       1 ACP        -0.8036
      5 PB          3.6383   -2.9593   -3.9514 P.3       1 ACP         1.4945
      6 O1B         4.6529   -3.3016   -5.0177 O.co2     1 ACP        -0.8481
      7 O2B         4.0201   -2.7875   -2.4994 O.co2     1 ACP        -0.8481
      8 C3B         2.3113   -4.2456   -4.0240 C.3       1 ACP        -0.6636
      9 PA          3.0640   -0.0874   -4.4291 P.3       1 ACP         1.6023
     10 O1A         1.8214    0.6556   -4.8701 O.co2     1 ACP        -0.8673
     11 O2A         4.3865    0.1390   -5.1289 O.co2     1 ACP        -0.8673
     12 O3A         2.7413   -1.6884   -4.4406 O.3       1 ACP        -0.8150
     13 O5'         3.2885    0.1337   -2.8242 O.3       1 ACP        -0.5522
     14 C5'         2.2816   -0.2918   -1.9206 C.3       1 ACP         0.2181
     15 C4'         2.7248    0.0226   -0.4980 C.3       1 ACP         0.0915
     16 O4'         2.4697    1.4219   -0.2462 O.3       1 ACP        -0.3675
     17 C3'         1.9404   -0.7419    0.5596 C.3       1 ACP         0.0748
     18 O3'         2.7418   -0.8086    1.7389 O.3       1 ACP        -0.5646
     19 C2'         0.7477    0.1630    0.7858 C.3       1 ACP         0.0804
     20 O2'         0.1373   -0.0577    2.0407 O.3       1 ACP        -0.5882
     21 C1'         1.3733    1.5427    0.6747 C.3       1 ACP         0.3809
     22 N9          0.4520    2.5240    0.1767 N.pl3     1 ACP        -0.4412
     23 C8         -1.0660    2.5608    0.3999 C.ar      1 ACP         0.1936
     24 N7         -1.5852    3.6333   -0.2221 N.2       1 ACP        -0.2746
     25 C5         -0.4682    4.1996   -0.7771 C.ar      1 ACP        -0.1386
     26 C6         -0.5216    5.4476   -1.5899 C.ar      1 ACP         0.4778
     27 N6         -1.6813    6.0510   -1.7982 N.pl3     1 ACP        -0.8290
     28 N1          0.6621    5.8575   -2.0523 N.pl3     1 ACP        -0.6985
     29 C2          1.8795    5.1301   -1.7717 C.ar      1 ACP         0.6179
     30 N3          1.9458    4.0434   -1.0670 N.ar      1 ACP        -0.5105
     31 C4          0.7388    3.6199   -0.5917 C.ar      1 ACP         0.2753
     32 HOG2       -0.6389   -5.9108   -2.7461 H         1 ACP         0.4487
     33 HOG3        0.9326   -4.6442   -0.7014 H         1 ACP         0.4487
     34 H3B1        2.8247   -5.2054   -3.8971 H         1 ACP         0.1088
     35 H3B2        1.9277   -4.2219   -5.0504 H         1 ACP         0.1088
     36 H5'1        1.3501    0.2325   -2.1561 H         1 ACP         0.0327
     37 H5'2        2.1268   -1.3683   -2.0445 H         1 ACP         0.0327
     38 H4'         3.8046   -0.1390   -0.4011 H         1 ACP         0.1275
     39 H3'         1.6787   -1.7627    0.2719 H         1 ACP         0.0637
     40 HO3'        2.2231   -1.2979    2.3952 H         1 ACP         0.4127
     41 H2'         0.0002   -0.0084   -0.0014 H         1 ACP         0.0692
     42 HO2'       -0.1554   -0.9852    2.0577 H         1 ACP         0.4431
     43 H1'         1.7718    1.9211    1.6015 H         1 ACP         0.1199
     44 H8         -1.7235    1.8833    0.9537 H         1 ACP         0.2941
     45 HN61       -2.5296    5.6672   -1.4072 H         1 ACP         0.4754
     46 HN62       -1.7205    6.8969   -2.3483 H         1 ACP         0.4754
     47 H2          2.7750    5.5878   -2.2190 H         1 ACP         0.0886
     48 H48         0.6808    6.7046   -2.6128 H         1 ACP         0.4707
@<TRIPOS>BOND
     1    1    2 2
     2    1    3 1
     3    1    4 1
     4    1    8 1
     5    3   32 1
     6    4   33 1
     7    5    6 2
     8    5    7 1
     9    5    8 1
    10    5   12 1
    11    8   34 1
    12    8   35 1
    13    9   10 2
    14    9   11 1
    15    9   12 1
    16    9   13 1
    17   13   14 1
    18   14   15 1
    19   14   36 1
    20   14   37 1
    21   15   16 1
    22   15   17 1
    23   15   38 1
    24   16   21 1
    25   17   18 1
    26   17   19 1
    27   17   39 1
    28   18   40 1
    29   19   20 1
    30   19   21 1
    31   19   41 1
    32   20   42 1
    33   21   22 1
    34   21   43 1
    35   22   23 ar
    36   22   31 ar
    37   23   24 ar
    38   23   44 1
    39   24   25 ar
    40   25   26 ar
    41   25   31 ar
    42   26   27 1
    43   26   28 ar
    44   27   45 1
    45   27   46 1
    46   28   29 ar
    47   28   48 1
    48   29   30 ar
    49   29   47 1
    50   30   31 ar
@<TRIPOS>SUBSTRUCTURE
     1 ACP         1 GROUP 0 A     ****
@<TRIPOS>MOLECULE
[[5-(6-amino-1,8-dihydropurine-6,8-diylium-7-id-9-yl)-3,4-dihydroxy-tetrahydrofuran-2-yl]methoxy-oxido-phosphoryl]oxy-(phosphonomethyl)phosphinate
   48    50     1     0     0
SMALL
USER_CHARGES

@<TRIPOS>ATOM
      1 PG         -1.8394   -3.5539    6.4687 P.3       1 ACP         1.6558
      2 O1G        -1.0527   -3.1043    5.2744 O.2       1 ACP        -0.9020
      3 O2G        -3.3456   -2.9773    6.5648 O.3       1 ACP        -0.8036
      4 O3G        -1.1972   -3.1785    7.9027 O.3       1 ACP        -0.8036
      5 PB         -2.9374   -6.3277    5.2728 P.3       1 ACP         1.4945
      6 O1B        -4.3439   -5.7865    5.1612 O.co2     1 ACP        -0.8481
      7 O2B        -2.6532   -7.7862    5.5472 O.co2     1 ACP        -0.8481
      8 C3B        -2.0727   -5.3425    6.5776 C.3       1 ACP        -0.6636
      9 PA         -2.2659   -6.0657    2.3941 P.3       1 ACP         1.6023
     10 O1A        -3.5371   -5.3651    1.9652 O.co2     1 ACP        -0.8673
     11 O2A        -2.0598   -7.5360    2.1012 O.co2     1 ACP        -0.8673
     12 O3A        -2.0569   -5.8242    3.9959 O.3       1 ACP        -0.8150
     13 O5'        -0.9728   -5.2428    1.8236 O.3       1 ACP        -0.5522
     14 C5'        -0.7840   -3.8935    2.2172 C.3       1 ACP         0.2181
     15 C4'        -0.0724   -3.1466    1.1027 C.3       1 ACP         0.0915
     16 O4'        -0.8674   -3.1929   -0.0945 O.3       1 ACP        -0.3675
     17 C3'         0.1338   -1.6715    1.4027 C.3       1 ACP         0.0748
     18 O3'         1.2893   -1.4445    2.1808 O.3       1 ACP        -0.5646
     19 C2'         0.2158   -1.0724    0.0128 C.3       1 ACP         0.0804
     20 O2'         1.5141   -1.2448   -0.5513 O.3       1 ACP        -0.5882
     21 C1'        -0.7897   -1.9176   -0.7583 C.3       1 ACP         0.3809
     22 N9         -2.1040   -1.3333   -0.7704 N.pl3     1 ACP        -0.4412
     23 C8         -3.2124   -1.5345    0.2719 C.ar      1 ACP         0.1936
     24 N7         -4.2964   -0.8234   -0.0828 N.2       1 ACP        -0.2746
     25 C5         -3.8754   -0.2386   -1.2478 C.ar      1 ACP        -0.1386
     26 C6         -4.7432    0.6719   -2.0470 C.ar      1 ACP         0.4778
     27 N6         -5.9725    0.9415   -1.6366 N.pl3     1 ACP        -0.8290
     28 N1         -4.1703    1.1517   -3.1536 N.pl3     1 ACP        -0.6985
     29 C2         -2.8174    0.7994   -3.5215 C.ar      1 ACP         0.6179
     30 N3         -2.0475    0.0097   -2.8393 N.ar      1 ACP        -0.5105
     31 C4         -2.6278   -0.4836   -1.7071 C.ar      1 ACP         0.2753
     32 HOG2       -3.4807   -2.0069    6.6108 H         1 ACP         0.4487
     33 HOG3       -1.0494   -2.2346    8.1248 H         1 ACP         0.4487
     34 H3B1       -1.0824   -5.7996    6.6835 H         1 ACP         0.1088
     35 H3B2       -2.6160   -5.5380    7.5092 H         1 ACP         0.1088
     36 H5'1       -1.7614   -3.4428    2.4166 H         1 ACP         0.0327
     37 H5'2       -0.1870   -3.8724    3.1344 H         1 ACP         0.0327
     38 H4'         0.8883   -3.6447    0.8783 H         1 ACP         0.1275
     39 H3'        -0.7368   -1.2359    1.9871 H         1 ACP         0.0637
     40 HO3'        1.3407   -0.4871    2.3218 H         1 ACP         0.4127
     41 H2'        -0.0343   -0.0280    0.0196 H         1 ACP         0.0692
     42 HO2'        2.1443   -0.7955    0.0378 H         1 ACP         0.4431
     43 H1'        -0.5175   -2.1046   -1.7826 H         1 ACP         0.1199
     44 H8         -3.2310   -2.1319    1.1889 H         1 ACP         0.2941
     45 HN61       -6.3230    0.5316   -0.7829 H         1 ACP         0.4754
     46 HN62       -6.5628    1.5584   -2.1760 H         1 ACP         0.4754
     47 H2         -2.4822    1.2710   -4.4579 H         1 ACP         0.0886
     48 H48        -4.7200    1.7780   -3.7346 H         1 ACP         0.4707
@<TRIPOS>BOND
     1    1    2 2
     2    1    3 1
     3    1    4 1
     4    1    8 1
     5    3   32 1
     6    4   33 1
     7    5    6 2
     8    5    7 1
     9    5    8 1
    10    5   12 1
    11    8   34 1
    12    8   35 1
    13    9   10 2
    14    9   11 1
    15    9   12 1
    16    9   13 1
    17   13   14 1
    18   14   15 1
    19   14   36 1
    20   14   37 1
    21   15   16 1
    22   15   17 1
    23   15   38 1
    24   16   21 1
    25   17   18 1
    26   17   19 1
    27   17   39 1
    28   18   40 1
    29   19   20 1
    30   19   21 1
    31   19   41 1
    32   20   42 1
    33   21   22 1
    34   21   43 1
    35   22   23 ar
    36   22   31 ar
    37   23   24 ar
    38   23   44 1
    39   24   25 ar
    40   25   26 ar
    41   25   31 ar
    42   26   27 1
    43   26   28 ar
    44   27   45 1
    45   27   46 1
    46   28   29 ar
    47   28   48 1
    48   29   30 ar
    49   29   47 1
    50   30   31 ar
@<TRIPOS>SUBSTRUCTURE
     1 ACP         1 GROUP 0 A     ****
@<TRIPOS>MOLECULE
[[5-(6-amino-1,8-dihydropurine-6,8-diylium-7-id-9-yl)-3,4-dihydroxy-tetrahydrofuran-2-yl]methoxy-oxido-phosphoryl]oxy-(phosphonomethyl)phosphinate
   48    50     1     0     0
SMALL
USER_CHARGES

@<TRIPOS>ATOM
      1 PG          6.9470   -2.7701   -3.9604 P.3       1 ACP         1.6558
      2 O1G         6.7048   -1.4859   -3.2259 O.2       1 ACP        -0.9020
      3 O2G         7.1698   -4.0711   -3.0288 O.3       1 ACP        -0.8036
      4 O3G         8.2340   -2.7776   -4.9368 O.3       1 ACP        -0.8036
      5 PB          3.8808   -3.5997   -4.4504 P.3       1 ACP         1.4945
      6 O1B         3.9675   -4.7259   -3.4466 O.co2     1 ACP        -0.8481
      7 O2B         2.9823   -3.6670   -5.6635 O.co2     1 ACP        -0.8481
      8 C3B         5.5978   -3.2696   -5.0538 C.3       1 ACP        -0.6636
      9 PA          3.4810   -0.6670   -4.2373 P.3       1 ACP         1.6023
     10 O1A         2.1984   -0.5911   -5.0371 O.co2     1 ACP        -0.8673
     11 O2A         4.7974   -0.2396   -4.8493 O.co2     1 ACP        -0.8673
     12 O3A         3.6466   -2.1886   -3.6674 O.3       1 ACP        -0.8150
     13 O5'         3.2885    0.1337   -2.8242 O.3       1 ACP        -0.5522
     14 C5'         2.2816   -0.2918   -1.9206 C.3       1 ACP         0.2181
     15 C4'         2.7248    0.0226   -0.4980 C.3       1 ACP         0.0915
     16 O4'         2.4697    1.4219   -0.2462 O.3       1 ACP        -0.3675
     17 C3'         1.9404   -0.7419    0.5596 C.3       1 ACP         0.0748
     18 O3'         2.7418   -0.8086    1.7389 O.3       1 ACP        -0.5646
     19 C2'         0.7477    0.1630    0.7858 C.3       1 ACP         0.0804
     20 O2'         0.1373   -0.0577    2.0407 O.3       1 ACP        -0.5882
     21 C1'         1.3733    1.5427    0.6747 C.3       1 ACP         0.3809
     22 N9          0.4520    2.5240    0.1767 N.pl3     1 ACP        -0.4412
     23 C8          0.1798    2.8712   -1.2933 C.ar      1 ACP         0.1936
     24 N7         -0.7494    3.8400   -1.3610 N.2       1 ACP        -0.2746
     25 C5         -1.0173    4.0603   -0.0358 C.ar      1 ACP        -0.1386
     26 C6         -2.0105    5.0717    0.4241 C.ar      1 ACP         0.4778
     27 N6         -2.6723    5.7982   -0.4628 N.pl3     1 ACP        -0.8290
     28 N1         -2.1445    5.1522    1.7502 N.pl3     1 ACP        -0.6985
     29 C2         -1.3755    4.3143    2.6426 C.ar      1 ACP         0.6179
     30 N3         -0.5075    3.4292    2.2616 N.ar      1 ACP        -0.5105
     31 C4         -0.3667    3.3425    0.9070 C.ar      1 ACP         0.2753
     32 HOG2        7.9179   -4.0787   -2.3945 H         1 ACP         0.4487
     33 HOG3        9.1221   -2.6148   -4.5537 H         1 ACP         0.4487
     34 H3B1        5.4951   -2.4990   -5.8262 H         1 ACP         0.1088
     35 H3B2        5.9188   -4.1875   -5.5592 H         1 ACP         0.1088
     36 H5'1        1.3501    0.2325   -2.1561 H         1 ACP         0.0327
     37 H5'2        2.1268   -1.3683   -2.0445 H         1 ACP         0.0327
     38 H4'         3.8046   -0.1390   -0.4011 H         1 ACP         0.1275
     39 H3'         1.6787   -1.7627    0.2719 H         1 ACP         0.0637
     40 HO3'        3.5553   -1.2733    1.4913 H         1 ACP         0.4127
     41 H2'         0.0002   -0.0084   -0.0014 H         1 ACP         0.0692
     42 HO2'       -0.6132    0.5577    2.1063 H         1 ACP         0.4431
     43 H1'         1.7718    1.9211    1.6015 H         1 ACP         0.1199
     44 H8          0.6089    2.4651   -2.2147 H         1 ACP         0.2941
     45 HN61       -2.5055    5.6680   -1.4503 H         1 ACP         0.4754
     46 HN62       -3.3462    6.4841   -0.1542 H         1 ACP         0.4754
     47 H2         -1.5932    4.4937    3.7066 H         1 ACP         0.0886
     48 H48        -2.8098    5.8270    2.1160 H         1 ACP         0.4707
@<TRIPOS>BOND
     1    1    2 2
     2    1    3 1
     3    1    4 1
     4    1    8 1
     5    3   32 1
     6    4   33 1
     7    5    6 2
     8    5    7 1
     9    5    8 1
    10    5   12 1
    11    8   34 1
    12    8   35 1
    13    9   10 2
    14    9   11 1
    15    9   12 1
    16    9   13 1
    17   13   14 1
    18   14   15 1
    19   14   36 1
    20   14   37 1
    21   15   16 1
    22   15   17 1
    23   15   38 1
    24   16   21 1
    25   17   18 1
    26   17   19 1
    27   17   39 1
    28   18   40 1
    29   19   20 1
    30   19   21 1
    31   19   41 1
    32   20   42 1
    33   21   22 1
    34   21   43 1
    35   22   23 ar
    36   22   31 ar
    37   23   24 ar
    38   23   44 1
    39   24   25 ar
    40   25   26 ar
    41   25   31 ar
    42   26   27 1
    43   26   28 ar
    44   27   45 1
    45   27   46 1
    46   28   29 ar
    47   28   48 1
    48   29   30 ar
    49   29   47 1
    50   30   31 ar
@<TRIPOS>SUBSTRUCTURE
     1 ACP         1 GROUP 0 A     ****
@<TRIPOS>MOLECULE
[[5-(6-amino-1,8-dihydropurine-6,8-diylium-7-id-9-yl)-3,4-dihydroxy-tetrahydrofuran-2-yl]methoxy-oxido-phosphoryl]oxy-(phosphonomethyl)phosphinate
   48    50     1     0     0
SMALL
USER_CHARGES

@<TRIPOS>ATOM
      1 PG          3.1913   -4.3870   -6.0930 P.3       1 ACP         1.6558
      2 O1G         2.2668   -4.2997   -4.9161 O.2       1 ACP        -0.9020
      3 O2G         2.5937   -3.8320   -7.4876 O.3       1 ACP        -0.8036
      4 O3G         3.7020   -5.8741   -6.4640 O.3       1 ACP        -0.8036
      5 PB          4.7771   -1.6298   -5.6319 P.3       1 ACP         1.4945
      6 O1B         4.1105   -0.9829   -6.8238 O.co2     1 ACP        -0.8481
      7 O2B         6.1812   -1.2743   -5.2009 O.co2     1 ACP        -0.8481
      8 C3B         4.7300   -3.4588   -5.9029 C.3       1 ACP        -0.6636
      9 PA          3.9659   -2.1095   -2.8180 P.3       1 ACP         1.6023
     10 O1A         5.0701   -1.3086   -2.1624 O.co2     1 ACP        -0.8673
     11 O2A         4.0235   -3.6214   -2.8472 O.co2     1 ACP        -0.8673
     12 O3A         3.7737   -1.5707   -4.3478 O.3       1 ACP        -0.8150
     13 O5'         2.5238   -1.6632   -2.1888 O.3       1 ACP        -0.5522
     14 C5'         2.2816   -0.2918   -1.9206 C.3       1 ACP         0.2181
     15 C4'         2.7248    0.0226   -0.4980 C.3       1 ACP         0.0915
     16 O4'         2.4697    1.4219   -0.2462 O.3       1 ACP        -0.3675
     17 C3'         1.9404   -0.7419    0.5596 C.3       1 ACP         0.0748
     18 O3'         2.7418   -0.8086    1.7389 O.3       1 ACP        -0.5646
     19 C2'         0.7477    0.1630    0.7858 C.3       1 ACP         0.0804
     20 O2'         0.1373   -0.0577    2.0407 O.3       1 ACP        -0.5882
     21 C1'         1.3733    1.5427    0.6747 C.3       1 ACP         0.3809
     22 N9          0.4520    2.5240    0.1767 N.pl3     1 ACP        -0.4412
     23 C8          0.1798    2.8712   -1.2933 C.ar      1 ACP         0.1936
     24 N7         -0.7494    3.8400   -1.3610 N.2       1 ACP        -0.2746
     25 C5         -1.0173    4.0603   -0.0358 C.ar      1 ACP        -0.1386
     26 C6         -2.0105    5.0717    0.4241 C.ar      1 ACP         0.4778
     27 N6         -2.6723    5.7982   -0.4628 N.pl3     1 ACP        -0.8290
     28 N1         -2.1445    5.1522    1.7502 N.pl3     1 ACP        -0.6985
     29 C2         -1.3755    4.3143    2.6426 C.ar      1 ACP         0.6179
     30 N3         -0.5075    3.4292    2.2616 N.ar      1 ACP        -0.5105
     31 C4         -0.3667    3.3425    0.9070 C.ar      1 ACP         0.2753
     32 HOG2        1.7862   -4.2481   -7.8576 H         1 ACP         0.4487
     33 HOG3        3.0403   -6.5589   -6.6989 H         1 ACP         0.4487
     34 H3B1        5.2779   -3.8953   -5.0602 H         1 ACP         0.1088
     35 H3B2        5.3280   -3.6433   -6.8026 H         1 ACP         0.1088
     36 H5'1        2.8430    0.3138   -2.6391 H         1 ACP         0.0327
     37 H5'2        1.2126   -0.0907   -2.0421 H         1 ACP         0.0327
     38 H4'         3.8046   -0.1390   -0.4011 H         1 ACP         0.1275
     39 H3'         1.6787   -1.7627    0.2719 H         1 ACP         0.0637
     40 HO3'        2.2231   -1.2979    2.3952 H         1 ACP         0.4127
     41 H2'         0.0002   -0.0084   -0.0014 H         1 ACP         0.0692
     42 HO2'       -0.6132    0.5577    2.1063 H         1 ACP         0.4431
     43 H1'         1.7718    1.9211    1.6015 H         1 ACP         0.1199
     44 H8          0.6089    2.4651   -2.2147 H         1 ACP         0.2941
     45 HN61       -2.5055    5.6680   -1.4503 H         1 ACP         0.4754
     46 HN62       -3.3462    6.4841   -0.1542 H         1 ACP         0.4754
     47 H2         -1.5932    4.4937    3.7066 H         1 ACP         0.0886
     48 H48        -2.8098    5.8270    2.1160 H         1 ACP         0.4707
@<TRIPOS>BOND
     1    1    2 2
     2    1    3 1
     3    1    4 1
     4    1    8 1
     5    3   32 1
     6    4   33 1
     7    5    6 2
     8    5    7 1
     9    5    8 1
    10    5   12 1
    11    8   34 1
    12    8   35 1
    13    9   10 2
    14    9   11 1
    15    9   12 1
    16    9   13 1
    17   13   14 1
    18   14   15 1
    19   14   36 1
    20   14   37 1
    21   15   16 1
    22   15   17 1
    23   15   38 1
    24   16   21 1
    25   17   18 1
    26   17   19 1
    27   17   39 1
    28   18   40 1
    29   19   20 1
    30   19   21 1
    31   19   41 1
    32   20   42 1
    33   21   22 1
    34   21   43 1
    35   22   23 ar
    36   22   31 ar
    37   23   24 ar
    38   23   44 1
    39   24   25 ar
    40   25   26 ar
    41   25   31 ar
    42   26   27 1
    43   26   28 ar
    44   27   45 1
    45   27   46 1
    46   28   29 ar
    47   28   48 1
    48   29   30 ar
    49   29   47 1
    50   30   31 ar
@<TRIPOS>SUBSTRUCTURE
     1 ACP         1 GROUP 0 A     ****
@<TRIPOS>MOLECULE
[[5-(6-amino-1,8-dihydropurine-6,8-diylium-7-id-9-yl)-3,4-dihydroxy-tetrahydrofuran-2-yl]methoxy-oxido-phosphoryl]oxy-(phosphonomethyl)phosphinate
   48    50     1     0     0
SMALL
USER_CHARGES

@<TRIPOS>ATOM
      1 PG          2.9513   -7.9169    5.2435 P.3       1 ACP         1.6558
      2 O1G         2.8402   -9.3822    4.9467 O.2       1 ACP        -0.9020
      3 O2G         4.2043   -7.4895    6.1695 O.3       1 ACP        -0.8036
      4 O3G         1.6811   -7.2648    5.9992 O.3       1 ACP        -0.8036
      5 PB          1.8865   -6.7993    2.4245 P.3       1 ACP         1.4945
      6 O1B         1.7583   -8.1941    1.8572 O.co2     1 ACP        -0.8481
      7 O2B         2.2244   -5.6052    1.5622 O.co2     1 ACP        -0.8481
      8 C3B         3.1413   -6.8723    3.7813 C.3       1 ACP        -0.6636
      9 PA         -1.0045   -6.4099    2.9689 P.3       1 ACP         1.6023
     10 O1A        -1.7675   -5.9091    4.1762 O.co2     1 ACP        -0.8673
     11 O2A        -1.3833   -7.7160    2.3052 O.co2     1 ACP        -0.8673
     12 O3A         0.5836   -6.4640    3.3461 O.3       1 ACP        -0.8150
     13 O5'        -0.9728   -5.2428    1.8236 O.3       1 ACP        -0.5522
     14 C5'        -0.7840   -3.8935    2.2172 C.3       1 ACP         0.2181
     15 C4'        -0.0724   -3.1466    1.1027 C.3       1 ACP         0.0915
     16 O4'        -0.8674   -3.1929   -0.0945 O.3       1 ACP        -0.3675
     17 C3'         0.1338   -1.6715    1.4027 C.3       1 ACP         0.0748
     18 O3'         1.2893   -1.4445    2.1808 O.3       1 ACP        -0.5646
     19 C2'         0.2158   -1.0724    0.0128 C.3       1 ACP         0.0804
     20 O2'         1.5141   -1.2448   -0.5513 O.3       1 ACP        -0.5882
     21 C1'        -0.7897   -1.9176   -0.7583 C.3       1 ACP         0.3809
     22 N9         -2.1040   -1.3333   -0.7704 N.pl3     1 ACP        -0.4412
     23 C8         -3.2124   -1.5345    0.2719 C.ar      1 ACP         0.1936
     24 N7         -4.2964   -0.8234   -0.0828 N.2       1 ACP        -0.2746
     25 C5         -3.8754   -0.2386   -1.2478 C.ar      1 ACP        -0.1386
     26 C6         -4.7432    0.6719   -2.0470 C.ar      1 ACP         0.4778
     27 N6         -5.9725    0.9415   -1.6366 N.pl3     1 ACP        -0.8290
     28 N1         -4.1703    1.1517   -3.1536 N.pl3     1 ACP        -0.6985
     29 C2         -2.8174    0.7994   -3.5215 C.ar      1 ACP         0.6179
     30 N3         -2.0475    0.0097   -2.8393 N.ar      1 ACP        -0.5105
     31 C4         -2.6278   -0.4836   -1.7071 C.ar      1 ACP         0.2753
     32 HOG2        4.2779   -7.8656    7.0724 H         1 ACP         0.4487
     33 HOG3        1.4225   -7.6115    6.8795 H         1 ACP         0.4487
     34 H3B1        3.2623   -5.8391    4.1261 H         1 ACP         0.1088
     35 H3B2        4.0836   -7.1614    3.3020 H         1 ACP         0.1088
     36 H5'1       -1.7614   -3.4428    2.4166 H         1 ACP         0.0327
     37 H5'2       -0.1870   -3.8724    3.1344 H         1 ACP         0.0327
     38 H4'         0.8883   -3.6447    0.8783 H         1 ACP         0.1275
     39 H3'        -0.7368   -1.2359    1.9871 H         1 ACP         0.0637
     40 HO3'        1.3407   -0.4871    2.3218 H         1 ACP         0.4127
     41 H2'        -0.0343   -0.0280    0.0196 H         1 ACP         0.0692
     42 HO2'        2.1443   -0.7955    0.0378 H         1 ACP         0.4431
     43 H1'        -0.5175   -2.1046   -1.7826 H         1 ACP         0.1199
     44 H8         -3.2310   -2.1319    1.1889 H         1 ACP         0.2941
     45 HN61       -6.3230    0.5316   -0.7829 H         1 ACP         0.4754
     46 HN62       -6.5628    1.5584   -2.1760 H         1 ACP         0.4754
     47 H2         -2.4822    1.2710   -4.4579 H         1 ACP         0.0886
     48 H48        -4.7200    1.7780   -3.7346 H         1 ACP         0.4707
@<TRIPOS>BOND
     1    1    2 2
     2    1    3 1
     3    1    4 1
     4    1    8 1
     5    3   32 1
     6    4   33 1
     7    5    6 2
     8    5    7 1
     9    5    8 1
    10    5   12 1
    11    8   34 1
    12    8   35 1
    13    9   10 2
    14    9   11 1
    15    9   12 1
    16    9   13 1
    17   13   14 1
    18   14   15 1
    19   14   36 1
    20   14   37 1
    21   15   16 1
    22   15   17 1
    23   15   38 1
    24   16   21 1
    25   17   18 1
    26   17   19 1
    27   17   39 1
    28   18   40 1
    29   19   20 1
    30   19   21 1
    31   19   41 1
    32   20   42 1
    33   21   22 1
    34   21   43 1
    35   22   23 ar
    36   22   31 ar
    37   23   24 ar
    38   23   44 1
    39   24   25 ar
    40   25   26 ar
    41   25   31 ar
    42   26   27 1
    43   26   28 ar
    44   27   45 1
    45   27   46 1
    46   28   29 ar
    47   28   48 1
    48   29   30 ar
    49   29   47 1
    50   30   31 ar
@<TRIPOS>SUBSTRUCTURE
     1 ACP         1 GROUP 0 A     ****
@<TRIPOS>MOLECULE
[[5-(6-amino-1,8-dihydropurine-6,8-diylium-7-id-9-yl)-3,4-dihydroxy-tetrahydrofuran-2-yl]methoxy-oxido-phosphoryl]oxy-(phosphonomethyl)phosphinate
   48    50     1     0     0
SMALL
USER_CHARGES

@<TRIPOS>ATOM
      1 PG          7.0947   -0.1217   -5.6219 P.3       1 ACP         1.6558
      2 O1G         5.9479   -0.2208   -6.5823 O.2       1 ACP        -0.9020
      3 O2G         7.9878    1.2191   -5.7434 O.3       1 ACP        -0.8036
      4 O3G         8.1827   -1.3122   -5.7168 O.3       1 ACP        -0.8036
      5 PB          5.7038   -1.5526   -3.1025 P.3       1 ACP         1.4945
      6 O1B         5.4857   -1.1983   -1.6497 O.co2     1 ACP        -0.8481
      7 O2B         6.3987   -2.8255   -3.5273 O.co2     1 ACP        -0.8481
      8 C3B         6.6128   -0.1422   -3.8804 C.3       1 ACP        -0.6636
      9 PA          2.8590   -2.1285   -3.7205 P.3       1 ACP         1.6023
     10 O1A         3.0780   -3.6257   -3.7547 O.co2     1 ACP        -0.8673
     11 O2A         1.8554   -1.4750   -4.6455 O.co2     1 ACP        -0.8673
     12 O3A         4.3020   -1.3896   -3.9195 O.3       1 ACP        -0.8150
     13 O5'         2.5238   -1.6632   -2.1888 O.3       1 ACP        -0.5522
     14 C5'         2.2816   -0.2918   -1.9206 C.3       1 ACP         0.2181
     15 C4'         2.7248    0.0226   -0.4980 C.3       1 ACP         0.0915
     16 O4'         2.4697    1.4219   -0.2462 O.3       1 ACP        -0.3675
     17 C3'         1.9404   -0.7419    0.5596 C.3       1 ACP         0.0748
     18 O3'         2.7418   -0.8086    1.7389 O.3       1 ACP        -0.5646
     19 C2'         0.7477    0.1630    0.7858 C.3       1 ACP         0.0804
     20 O2'         0.1373   -0.0577    2.0407 O.3       1 ACP        -0.5882
     21 C1'         1.3733    1.5427    0.6747 C.3       1 ACP         0.3809
     22 N9          0.4520    2.5240    0.1767 N.pl3     1 ACP        -0.4412
     23 C8         -0.3054    2.4845   -1.1576 C.ar      1 ACP         0.1936
     24 N7         -1.0755    3.5806   -1.2691 N.2       1 ACP        -0.2746
     25 C5         -0.8043    4.2306   -0.0942 C.ar      1 ACP        -0.1386
     26 C6         -1.4324    5.5335    0.2646 C.ar      1 ACP         0.4778
     27 N6         -2.2885    6.1054   -0.5675 N.pl3     1 ACP        -0.8290
     28 N1         -1.0537    6.0229    1.4478 N.pl3     1 ACP        -0.6985
     29 C2         -0.1096    5.3242    2.2908 C.ar      1 ACP         0.6179
     30 N3          0.4468    4.1904    1.9960 N.ar      1 ACP        -0.5105
     31 C4          0.0631    3.6855    0.7877 C.ar      1 ACP         0.2753
     32 HOG2        8.4414    1.4126   -6.5913 H         1 ACP         0.4487
     33 HOG3        8.6616   -1.4520   -6.5612 H         1 ACP         0.4487
     34 H3B1        7.5229   -0.0138   -3.2836 H         1 ACP         0.1088
     35 H3B2        5.9915    0.7444   -3.7101 H         1 ACP         0.1088
     36 H5'1        2.8430    0.3138   -2.6391 H         1 ACP         0.0327
     37 H5'2        1.2126   -0.0907   -2.0421 H         1 ACP         0.0327
     38 H4'         3.8046   -0.1390   -0.4011 H         1 ACP         0.1275
     39 H3'         1.6787   -1.7627    0.2719 H         1 ACP         0.0637
     40 HO3'        3.5553   -1.2733    1.4913 H         1 ACP         0.4127
     41 H2'         0.0002   -0.0084   -0.0014 H         1 ACP         0.0692
     42 HO2'        0.8091    0.1203    2.7213 H         1 ACP         0.4431
     43 H1'         1.7718    1.9211    1.6015 H         1 ACP         0.1199
     44 H8         -0.2991    1.7413   -1.9611 H         1 ACP         0.2941
     45 HN61       -2.5167    5.6603   -1.4447 H         1 ACP         0.4754
     46 HN62       -2.7159    6.9882   -0.3270 H         1 ACP         0.4754
     47 H2          0.1059    5.8491    3.2340 H         1 ACP         0.0886
     48 H48        -1.4532    6.9099    1.7401 H         1 ACP         0.4707
@<TRIPOS>BOND
     1    1    2 2
     2    1    3 1
     3    1    4 1
     4    1    8 1
     5    3   32 1
     6    4   33 1
     7    5    6 2
     8    5    7 1
     9    5    8 1
    10    5   12 1
    11    8   34 1
    12    8   35 1
    13    9   10 2
    14    9   11 1
    15    9   12 1
    16    9   13 1
    17   13   14 1
    18   14   15 1
    19   14   36 1
    20   14   37 1
    21   15   16 1
    22   15   17 1
    23   15   38 1
    24   16   21 1
    25   17   18 1
    26   17   19 1
    27   17   39 1
    28   18   40 1
    29   19   20 1
    30   19   21 1
    31   19   41 1
    32   20   42 1
    33   21   22 1
    34   21   43 1
    35   22   23 ar
    36   22   31 ar
    37   23   24 ar
    38   23   44 1
    39   24   25 ar
    40   25   26 ar
    41   25   31 ar
    42   26   27 1
    43   26   28 ar
    44   27   45 1
    45   27   46 1
    46   28   29 ar
    47   28   48 1
    48   29   30 ar
    49   29   47 1
    50   30   31 ar
@<TRIPOS>SUBSTRUCTURE
     1 ACP         1 GROUP 0 A     ****
@<TRIPOS>MOLECULE
[[5-(6-amino-1,8-dihydropurine-6,8-diylium-7-id-9-yl)-3,4-dihydroxy-tetrahydrofuran-2-yl]methoxy-oxido-phosphoryl]oxy-(phosphonomethyl)phosphinate
   48    50     1     0     0
SMALL
USER_CHARGES

@<TRIPOS>ATOM
      1 PG         -0.7607    0.7423   -7.0050 P.3       1 ACP         1.6558
      2 O1G        -0.0139    0.9094   -8.2941 O.2       1 ACP        -0.9020
      3 O2G        -2.3568    0.5373   -7.1492 O.3       1 ACP        -0.8036
      4 O3G        -0.6283    1.9699   -5.9634 O.3       1 ACP        -0.8036
      5 PB          1.4776   -0.9070   -5.3927 P.3       1 ACP         1.4945
      6 O1B         2.3941   -0.9444   -6.5936 O.co2     1 ACP        -0.8481
      7 O2B         1.4430   -2.0180   -4.3689 O.co2     1 ACP        -0.8481
      8 C3B        -0.2464   -0.6863   -6.0252 C.3       1 ACP        -0.6636
      9 PA          2.9201    1.2533   -3.9581 P.3       1 ACP         1.6023
     10 O1A         2.4599    2.5248   -3.2784 O.co2     1 ACP        -0.8673
     11 O2A         4.0401    1.2850   -4.9752 O.co2     1 ACP        -0.8673
     12 O3A         1.6231    0.5326   -4.6407 O.3       1 ACP        -0.8150
     13 O5'         3.2885    0.1337   -2.8242 O.3       1 ACP        -0.5522
     14 C5'         2.2816   -0.2918   -1.9206 C.3       1 ACP         0.2181
     15 C4'         2.7248    0.0226   -0.4980 C.3       1 ACP         0.0915
     16 O4'         2.4697    1.4219   -0.2462 O.3       1 ACP        -0.3675
     17 C3'         1.9404   -0.7419    0.5596 C.3       1 ACP         0.0748
     18 O3'         2.7418   -0.8086    1.7389 O.3       1 ACP        -0.5646
     19 C2'         0.7477    0.1630    0.7858 C.3       1 ACP         0.0804
     20 O2'         0.1373   -0.0577    2.0407 O.3       1 ACP        -0.5882
     21 C1'         1.3733    1.5427    0.6747 C.3       1 ACP         0.3809
     22 N9          0.4520    2.5240    0.1767 N.pl3     1 ACP        -0.4412
     23 C8         -0.3054    2.4845   -1.1576 C.ar      1 ACP         0.1936
     24 N7         -1.0755    3.5806   -1.2691 N.2       1 ACP        -0.2746
     25 C5         -0.8043    4.2306   -0.0942 C.ar      1 ACP        -0.1386
     26 C6         -1.4324    5.5335    0.2646 C.ar      1 ACP         0.4778
     27 N6         -2.2885    6.1054   -0.5675 N.pl3     1 ACP        -0.8290
     28 N1         -1.0537    6.0229    1.4478 N.pl3     1 ACP        -0.6985
     29 C2         -0.1096    5.3242    2.2908 C.ar      1 ACP         0.6179
     30 N3          0.4468    4.1904    1.9960 N.ar      1 ACP        -0.5105
     31 C4          0.0631    3.6855    0.7877 C.ar      1 ACP         0.2753
     32 HOG2       -2.8890    1.2398   -7.5797 H         1 ACP         0.4487
     33 HOG3       -0.9328    2.8609   -6.2379 H         1 ACP         0.4487
     34 H3B1       -0.8922   -0.7311   -5.1410 H         1 ACP         0.1088
     35 H3B2       -0.4619   -1.5789   -6.6236 H         1 ACP         0.1088
     36 H5'1        1.3501    0.2325   -2.1561 H         1 ACP         0.0327
     37 H5'2        2.1268   -1.3683   -2.0445 H         1 ACP         0.0327
     38 H4'         3.8046   -0.1390   -0.4011 H         1 ACP         0.1275
     39 H3'         1.6787   -1.7627    0.2719 H         1 ACP         0.0637
     40 HO3'        2.9082    0.1071    2.0091 H         1 ACP         0.4127
     41 H2'         0.0002   -0.0084   -0.0014 H         1 ACP         0.0692
     42 HO2'       -0.1554   -0.9852    2.0577 H         1 ACP         0.4431
     43 H1'         1.7718    1.9211    1.6015 H         1 ACP         0.1199
     44 H8         -0.2991    1.7413   -1.9611 H         1 ACP         0.2941
     45 HN61       -2.5167    5.6603   -1.4447 H         1 ACP         0.4754
     46 HN62       -2.7159    6.9882   -0.3270 H         1 ACP         0.4754
     47 H2          0.1059    5.8491    3.2340 H         1 ACP         0.0886
     48 H48        -1.4532    6.9099    1.7401 H         1 ACP         0.4707
@<TRIPOS>BOND
     1    1    2 2
     2    1    3 1
     3    1    4 1
     4    1    8 1
     5    3   32 1
     6    4   33 1
     7    5    6 2
     8    5    7 1
     9    5    8 1
    10    5   12 1
    11    8   34 1
    12    8   35 1
    13    9   10 2
    14    9   11 1
    15    9   12 1
    16    9   13 1
    17   13   14 1
    18   14   15 1
    19   14   36 1
    20   14   37 1
    21   15   16 1
    22   15   17 1
    23   15   38 1
    24   16   21 1
    25   17   18 1
    26   17   19 1
    27   17   39 1
    28   18   40 1
    29   19   20 1
    30   19   21 1
    31   19   41 1
    32   20   42 1
    33   21   22 1
    34   21   43 1
    35   22   23 ar
    36   22   31 ar
    37   23   24 ar
    38   23   44 1
    39   24   25 ar
    40   25   26 ar
    41   25   31 ar
    42   26   27 1
    43   26   28 ar
    44   27   45 1
    45   27   46 1
    46   28   29 ar
    47   28   48 1
    48   29   30 ar
    49   29   47 1
    50   30   31 ar
@<TRIPOS>SUBSTRUCTURE
     1 ACP         1 GROUP 0 A     ****
@<TRIPOS>MOLECULE
[[5-(6-amino-1,8-dihydropurine-6,8-diylium-7-id-9-yl)-3,4-dihydroxy-tetrahydrofuran-2-yl]methoxy-oxido-phosphoryl]oxy-(phosphonomethyl)phosphinate
   48    50     1     0     0
SMALL
USER_CHARGES

@<TRIPOS>ATOM
      1 PG          3.2040   -5.2254    6.3752 P.3       1 ACP         1.6558
      2 O1G         1.8197   -5.1559    6.9461 O.2       1 ACP        -0.9020
      3 O2G         3.9484   -6.6508    6.5316 O.3       1 ACP        -0.8036
      4 O3G         4.2627   -4.1744    6.9951 O.3       1 ACP        -0.8036
      5 PB          2.4106   -5.9303    3.3415 P.3       1 ACP         1.4945
      6 O1B         2.9231   -7.3454    3.4780 O.co2     1 ACP        -0.8481
      7 O2B         2.4573   -5.1778    2.0319 O.co2     1 ACP        -0.8481
      8 C3B         3.2954   -4.9029    4.5995 C.3       1 ACP        -0.6636
      9 PA         -0.5395   -6.2491    3.3735 P.3       1 ACP         1.6023
     10 O1A        -1.6135   -5.8062    4.3436 O.co2     1 ACP        -0.8673
     11 O2A        -0.4654   -7.6878    2.9102 O.co2     1 ACP        -0.8673
     12 O3A         0.9155   -5.8278    3.9843 O.3       1 ACP        -0.8150
     13 O5'        -0.5696   -5.2856    2.0523 O.3       1 ACP        -0.5522
     14 C5'        -0.7840   -3.8935    2.2172 C.3       1 ACP         0.2181
     15 C4'        -0.0724   -3.1466    1.1027 C.3       1 ACP         0.0915
     16 O4'        -0.8674   -3.1929   -0.0945 O.3       1 ACP        -0.3675
     17 C3'         0.1338   -1.6715    1.4027 C.3       1 ACP         0.0748
     18 O3'         1.2893   -1.4445    2.1808 O.3       1 ACP        -0.5646
     19 C2'         0.2158   -1.0724    0.0128 C.3       1 ACP         0.0804
     20 O2'         1.5141   -1.2448   -0.5513 O.3       1 ACP        -0.5882
     21 C1'        -0.7897   -1.9176   -0.7583 C.3       1 ACP         0.3809
     22 N9         -2.1040   -1.3333   -0.7704 N.pl3     1 ACP        -0.4412
     23 C8         -3.2124   -1.5345    0.2719 C.ar      1 ACP         0.1936
     24 N7         -4.2964   -0.8234   -0.0828 N.2       1 ACP        -0.2746
     25 C5         -3.8754   -0.2386   -1.2478 C.ar      1 ACP        -0.1386
     26 C6         -4.7432    0.6719   -2.0470 C.ar      1 ACP         0.4778
     27 N6         -5.9725    0.9415   -1.6366 N.pl3     1 ACP        -0.8290
     28 N1         -4.1703    1.1517   -3.1536 N.pl3     1 ACP        -0.6985
     29 C2         -2.8174    0.7994   -3.5215 C.ar      1 ACP         0.6179
     30 N3         -2.0475    0.0097   -2.8393 N.ar      1 ACP        -0.5105
     31 C4         -2.6278   -0.4836   -1.7071 C.ar      1 ACP         0.2753
     32 HOG2        4.1028   -7.0100    7.4311 H         1 ACP         0.4487
     33 HOG3        4.4582   -4.2075    7.9556 H         1 ACP         0.4487
     34 H3B1        2.9550   -3.8749    4.4319 H         1 ACP         0.1088
     35 H3B2        4.3551   -4.9377    4.3223 H         1 ACP         0.1088
     36 H5'1       -1.8599   -3.6947    2.1849 H         1 ACP         0.0327
     37 H5'2       -0.3934   -3.5882    3.1930 H         1 ACP         0.0327
     38 H4'         0.8883   -3.6447    0.8783 H         1 ACP         0.1275
     39 H3'        -0.7368   -1.2359    1.9871 H         1 ACP         0.0637
     40 HO3'        1.3407   -0.4871    2.3218 H         1 ACP         0.4127
     41 H2'        -0.0343   -0.0280    0.0196 H         1 ACP         0.0692
     42 HO2'        2.1443   -0.7955    0.0378 H         1 ACP         0.4431
     43 H1'        -0.5175   -2.1046   -1.7826 H         1 ACP         0.1199
     44 H8         -3.2310   -2.1319    1.1889 H         1 ACP         0.2941
     45 HN61       -6.3230    0.5316   -0.7829 H         1 ACP         0.4754
     46 HN62       -6.5628    1.5584   -2.1760 H         1 ACP         0.4754
     47 H2         -2.4822    1.2710   -4.4579 H         1 ACP         0.0886
     48 H48        -4.7200    1.7780   -3.7346 H         1 ACP         0.4707
@<TRIPOS>BOND
     1    1    2 2
     2    1    3 1
     3    1    4 1
     4    1    8 1
     5    3   32 1
     6    4   33 1
     7    5    6 2
     8    5    7 1
     9    5    8 1
    10    5   12 1
    11    8   34 1
    12    8   35 1
    13    9   10 2
    14    9   11 1
    15    9   12 1
    16    9   13 1
    17   13   14 1
    18   14   15 1
    19   14   36 1
    20   14   37 1
    21   15   16 1
    22   15   17 1
    23   15   38 1
    24   16   21 1
    25   17   18 1
    26   17   19 1
    27   17   39 1
    28   18   40 1
    29   19   20 1
    30   19   21 1
    31   19   41 1
    32   20   42 1
    33   21   22 1
    34   21   43 1
    35   22   23 ar
    36   22   31 ar
    37   23   24 ar
    38   23   44 1
    39   24   25 ar
    40   25   26 ar
    41   25   31 ar
    42   26   27 1
    43   26   28 ar
    44   27   45 1
    45   27   46 1
    46   28   29 ar
    47   28   48 1
    48   29   30 ar
    49   29   47 1
    50   30   31 ar
@<TRIPOS>SUBSTRUCTURE
     1 ACP         1 GROUP 0 A     ****
@<TRIPOS>MOLECULE
[[5-(6-amino-1,8-dihydropurine-6,8-diylium-7-id-9-yl)-3,4-dihydroxy-tetrahydrofuran-2-yl]methoxy-oxido-phosphoryl]oxy-(phosphonomethyl)phosphinate
   48    50     1     0     0
SMALL
USER_CHARGES

@<TRIPOS>ATOM
      1 PG          3.2312   -4.7519    4.5190 P.3       1 ACP         1.6558
      2 O1G         4.6431   -4.2673    4.3800 O.2       1 ACP        -0.9020
      3 O2G         2.1764   -4.1277    3.4664 O.3       1 ACP        -0.8036
      4 O3G         2.5427   -4.4773    5.9543 O.3       1 ACP        -0.8036
      5 PB          1.3923   -7.3860    4.4209 P.3       1 ACP         1.4945
      6 O1B         0.8557   -7.1303    5.8102 O.co2     1 ACP        -0.8481
      7 O2B         1.5685   -8.7813    3.8678 O.co2     1 ACP        -0.8481
      8 C3B         3.0297   -6.5343    4.3000 C.3       1 ACP        -0.6636
      9 PA         -1.0045   -6.4099    2.9689 P.3       1 ACP         1.6023
     10 O1A        -1.7675   -5.9091    4.1762 O.co2     1 ACP        -0.8673
     11 O2A        -1.3833   -7.7160    2.3052 O.co2     1 ACP        -0.8673
     12 O3A         0.5836   -6.4640    3.3461 O.3       1 ACP        -0.8150
     13 O5'        -0.9728   -5.2428    1.8236 O.3       1 ACP        -0.5522
     14 C5'        -0.7840   -3.8935    2.2172 C.3       1 ACP         0.2181
     15 C4'        -0.0724   -3.1466    1.1027 C.3       1 ACP         0.0915
     16 O4'        -0.8674   -3.1929   -0.0945 O.3       1 ACP        -0.3675
     17 C3'         0.1338   -1.6715    1.4027 C.3       1 ACP         0.0748
     18 O3'         1.2893   -1.4445    2.1808 O.3       1 ACP        -0.5646
     19 C2'         0.2158   -1.0724    0.0128 C.3       1 ACP         0.0804
     20 O2'         1.5141   -1.2448   -0.5513 O.3       1 ACP        -0.5882
     21 C1'        -0.7897   -1.9176   -0.7583 C.3       1 ACP         0.3809
     22 N9         -2.1040   -1.3333   -0.7704 N.pl3     1 ACP        -0.4412
     23 C8         -3.2124   -1.5345    0.2719 C.ar      1 ACP         0.1936
     24 N7         -4.2964   -0.8234   -0.0828 N.2       1 ACP        -0.2746
     25 C5         -3.8754   -0.2386   -1.2478 C.ar      1 ACP        -0.1386
     26 C6         -4.7432    0.6719   -2.0470 C.ar      1 ACP         0.4778
     27 N6         -5.9725    0.9415   -1.6366 N.pl3     1 ACP        -0.8290
     28 N1         -4.1703    1.1517   -3.1536 N.pl3     1 ACP        -0.6985
     29 C2         -2.8174    0.7994   -3.5215 C.ar      1 ACP         0.6179
     30 N3         -2.0475    0.0097   -2.8393 N.ar      1 ACP        -0.5105
     31 C4         -2.6278   -0.4836   -1.7071 C.ar      1 ACP         0.2753
     32 HOG2        2.0367   -3.1569    3.4530 H         1 ACP         0.4487
     33 HOG3        2.4514   -3.5526    6.2684 H         1 ACP         0.4487
     34 H3B1        3.4235   -6.7928    3.3106 H         1 ACP         0.1088
     35 H3B2        3.6759   -7.0223    5.0385 H         1 ACP         0.1088
     36 H5'1       -1.7614   -3.4428    2.4166 H         1 ACP         0.0327
     37 H5'2       -0.1870   -3.8724    3.1344 H         1 ACP         0.0327
     38 H4'         0.8883   -3.6447    0.8783 H         1 ACP         0.1275
     39 H3'        -0.7368   -1.2359    1.9871 H         1 ACP         0.0637
     40 HO3'        1.3407   -0.4871    2.3218 H         1 ACP         0.4127
     41 H2'        -0.0343   -0.0280    0.0196 H         1 ACP         0.0692
     42 HO2'        2.1443   -0.7955    0.0378 H         1 ACP         0.4431
     43 H1'        -0.5175   -2.1046   -1.7826 H         1 ACP         0.1199
     44 H8         -3.2310   -2.1319    1.1889 H         1 ACP         0.2941
     45 HN61       -6.3230    0.5316   -0.7829 H         1 ACP         0.4754
     46 HN62       -6.5628    1.5584   -2.1760 H         1 ACP         0.4754
     47 H2         -2.4822    1.2710   -4.4579 H         1 ACP         0.0886
     48 H48        -4.7200    1.7780   -3.7346 H         1 ACP         0.4707
@<TRIPOS>BOND
     1    1    2 2
     2    1    3 1
     3    1    4 1
     4    1    8 1
     5    3   32 1
     6    4   33 1
     7    5    6 2
     8    5    7 1
     9    5    8 1
    10    5   12 1
    11    8   34 1
    12    8   35 1
    13    9   10 2
    14    9   11 1
    15    9   12 1
    16    9   13 1
    17   13   14 1
    18   14   15 1
    19   14   36 1
    20   14   37 1
    21   15   16 1
    22   15   17 1
    23   15   38 1
    24   16   21 1
    25   17   18 1
    26   17   19 1
    27   17   39 1
    28   18   40 1
    29   19   20 1
    30   19   21 1
    31   19   41 1
    32   20   42 1
    33   21   22 1
    34   21   43 1
    35   22   23 ar
    36   22   31 ar
    37   23   24 ar
    38   23   44 1
    39   24   25 ar
    40   25   26 ar
    41   25   31 ar
    42   26   27 1
    43   26   28 ar
    44   27   45 1
    45   27   46 1
    46   28   29 ar
    47   28   48 1
    48   29   30 ar
    49   29   47 1
    50   30   31 ar
@<TRIPOS>SUBSTRUCTURE
     1 ACP         1 GROUP 0 A     ****
@<TRIPOS>MOLECULE
[[5-(6-amino-1,8-dihydropurine-6,8-diylium-7-id-9-yl)-3,4-dihydroxy-tetrahydrofuran-2-yl]methoxy-oxido-phosphoryl]oxy-(phosphonomethyl)phosphinate
   48    50     1     0     0
SMALL
USER_CHARGES

@<TRIPOS>ATOM
      1 PG         -1.1165   -4.6515   -3.1512 P.3       1 ACP         1.6558
      2 O1G        -0.0950   -4.4174   -2.0793 O.2       1 ACP        -0.9020
      3 O2G        -2.6071   -4.1264   -2.8160 O.3       1 ACP        -0.8036
      4 O3G        -1.3428   -6.1960   -3.5672 O.3       1 ACP        -0.8036
      5 PB         -0.5443   -2.0213   -4.9076 P.3       1 ACP         1.4945
      6 O1B        -1.8490   -1.3874   -4.4838 O.co2     1 ACP        -0.8481
      7 O2B         0.0747   -1.7658   -6.2622 O.co2     1 ACP        -0.8481
      8 C3B        -0.7400   -3.8517   -4.7273 C.3       1 ACP        -0.6636
      9 PA          2.1358   -2.2685   -3.6578 P.3       1 ACP         1.6023
     10 O1A         2.9130   -1.5310   -4.7268 O.co2     1 ACP        -0.8673
     11 O2A         2.1809   -3.7788   -3.5758 O.co2     1 ACP        -0.8673
     12 O3A         0.5726   -1.8024   -3.7398 O.3       1 ACP        -0.8150
     13 O5'         2.5238   -1.6632   -2.1888 O.3       1 ACP        -0.5522
     14 C5'         2.2816   -0.2918   -1.9206 C.3       1 ACP         0.2181
     15 C4'         2.7248    0.0226   -0.4980 C.3       1 ACP         0.0915
     16 O4'         2.4697    1.4219   -0.2462 O.3       1 ACP        -0.3675
     17 C3'         1.9404   -0.7419    0.5596 C.3       1 ACP         0.0748
     18 O3'         2.7418   -0.8086    1.7389 O.3       1 ACP        -0.5646
     19 C2'         0.7477    0.1630    0.7858 C.3       1 ACP         0.0804
     20 O2'         0.1373   -0.0577    2.0407 O.3       1 ACP        -0.5882
     21 C1'         1.3733    1.5427    0.6747 C.3       1 ACP         0.3809
     22 N9          0.4520    2.5240    0.1767 N.pl3     1 ACP        -0.4412
     23 C8          0.5793    3.3338   -1.1209 C.ar      1 ACP         0.1936
     24 N7         -0.4807    4.1508   -1.2458 N.2       1 ACP        -0.2746
     25 C5         -1.1921    3.8572   -0.1126 C.ar      1 ACP        -0.1386
     26 C6         -2.4855    4.5203    0.2163 C.ar      1 ACP         0.4778
     27 N6         -2.9873    5.4319   -0.6020 N.pl3     1 ACP        -0.8290
     28 N1         -3.0414    4.1119    1.3596 N.pl3     1 ACP        -0.6985
     29 C2         -2.4169    3.1071    2.1904 C.ar      1 ACP         0.6179
     30 N3         -1.2928    2.5191    1.9210 N.ar      1 ACP        -0.5105
     31 C4         -0.7202    2.9326    0.7534 C.ar      1 ACP         0.2753
     32 HOG2       -3.0746   -4.4907   -2.0345 H         1 ACP         0.4487
     33 HOG3       -1.6437   -6.8327   -2.8845 H         1 ACP         0.4487
     34 H3B1        0.1928   -4.2858   -5.1044 H         1 ACP         0.1088
     35 H3B2       -1.5321   -4.1383   -5.4286 H         1 ACP         0.1088
     36 H5'1        2.8430    0.3138   -2.6391 H         1 ACP         0.0327
     37 H5'2        1.2126   -0.0907   -2.0421 H         1 ACP         0.0327
     38 H4'         3.8046   -0.1390   -0.4011 H         1 ACP         0.1275
     39 H3'         1.6787   -1.7627    0.2719 H         1 ACP         0.0637
     40 HO3'        3.5553   -1.2733    1.4913 H         1 ACP         0.4127
     41 H2'         0.0002   -0.0084   -0.0014 H         1 ACP         0.0692
     42 HO2'       -0.1554   -0.9852    2.0577 H         1 ACP         0.4431
     43 H1'         1.7718    1.9211    1.6015 H         1 ACP         0.1199
     44 H8          1.3565    3.3309   -1.8916 H         1 ACP         0.2941
     45 HN61       -2.4952    5.6785   -1.4487 H         1 ACP         0.4754
     46 HN62       -3.8637    5.8828   -0.3819 H         1 ACP         0.4754
     47 H2         -2.9911    2.8734    3.1000 H         1 ACP         0.0886
     48 H48        -3.9253    4.5332    1.6302 H         1 ACP         0.4707
@<TRIPOS>BOND
     1    1    2 2
     2    1    3 1
     3    1    4 1
     4    1    8 1
     5    3   32 1
     6    4   33 1
     7    5    6 2
     8    5    7 1
     9    5    8 1
    10    5   12 1
    11    8   34 1
    12    8   35 1
    13    9   10 2
    14    9   11 1
    15    9   12 1
    16    9   13 1
    17   13   14 1
    18   14   15 1
    19   14   36 1
    20   14   37 1
    21   15   16 1
    22   15   17 1
    23   15   38 1
    24   16   21 1
    25   17   18 1
    26   17   19 1
    27   17   39 1
    28   18   40 1
    29   19   20 1
    30   19   21 1
    31   19   41 1
    32   20   42 1
    33   21   22 1
    34   21   43 1
    35   22   23 ar
    36   22   31 ar
    37   23   24 ar
    38   23   44 1
    39   24   25 ar
    40   25   26 ar
    41   25   31 ar
    42   26   27 1
    43   26   28 ar
    44   27   45 1
    45   27   46 1
    46   28   29 ar
    47   28   48 1
    48   29   30 ar
    49   29   47 1
    50   30   31 ar
@<TRIPOS>SUBSTRUCTURE
     1 ACP         1 GROUP 0 A     ****
@<TRIPOS>MOLECULE
[[5-(6-amino-1,8-dihydropurine-6,8-diylium-7-id-9-yl)-3,4-dihydroxy-tetrahydrofuran-2-yl]methoxy-oxido-phosphoryl]oxy-(phosphonomethyl)phosphinate
   48    50     1     0     0
SMALL
USER_CHARGES

@<TRIPOS>ATOM
      1 PG          2.2443   -4.7289   -3.4919 P.3       1 ACP         1.6558
      2 O1G         0.7962   -4.7862   -3.8753 O.2       1 ACP        -0.9020
      3 O2G         2.8652   -6.1056   -2.9179 O.3       1 ACP        -0.8036
      4 O3G         2.6181   -3.6418   -2.3569 O.3       1 ACP        -0.8036
      5 PB          3.2448   -2.7178   -5.7907 P.3       1 ACP         1.4945
      6 O1B         1.8725   -2.6686   -6.4217 O.co2     1 ACP        -0.8481
      7 O2B         4.5120   -2.5833   -6.6030 O.co2     1 ACP        -0.8481
      8 C3B         3.3590   -4.3061   -4.8499 C.3       1 ACP        -0.6636
      9 PA          3.0640   -0.0874   -4.4291 P.3       1 ACP         1.6023
     10 O1A         1.6224    0.2104   -4.7809 O.co2     1 ACP        -0.8673
     11 O2A         4.1945    0.5982   -5.1653 O.co2     1 ACP        -0.8673
     12 O3A         3.2953   -1.7018   -4.5162 O.3       1 ACP        -0.8150
     13 O5'         3.2885    0.1337   -2.8242 O.3       1 ACP        -0.5522
     14 C5'         2.2816   -0.2918   -1.9206 C.3       1 ACP         0.2181
     15 C4'         2.7248    0.0226   -0.4980 C.3       1 ACP         0.0915
     16 O4'         2.4697    1.4219   -0.2462 O.3       1 ACP        -0.3675
     17 C3'         1.9404   -0.7419    0.5596 C.3       1 ACP         0.0748
     18 O3'         2.7418   -0.8086    1.7389 O.3       1 ACP        -0.5646
     19 C2'         0.7477    0.1630    0.7858 C.3       1 ACP         0.0804
     20 O2'         0.1373   -0.0577    2.0407 O.3       1 ACP        -0.5882
     21 C1'         1.3733    1.5427    0.6747 C.3       1 ACP         0.3809
     22 N9          0.4520    2.5240    0.1767 N.pl3     1 ACP        -0.4412
     23 C8         -0.7463    2.2774   -0.7501 C.ar      1 ACP         0.1936
     24 N7         -1.3714    3.4419   -0.9948 N.2       1 ACP        -0.2746
     25 C5         -0.6104    4.3223   -0.2723 C.ar      1 ACP        -0.1386
     26 C6         -0.9062    5.7820   -0.2194 C.ar      1 ACP         0.4778
     27 N6         -1.9385    6.2713   -0.8881 N.pl3     1 ACP        -0.8290
     28 N1         -0.0613    6.4906    0.5336 N.pl3     1 ACP        -0.6985
     29 C2          1.0416    5.8662    1.2291 C.ar      1 ACP         0.6179
     30 N3          1.3146    4.5989    1.1954 N.ar      1 ACP        -0.5105
     31 C4          0.4541    3.8697    0.4273 C.ar      1 ACP         0.2753
     32 HOG2        2.4767   -6.5009   -2.1086 H         1 ACP         0.4487
     33 HOG3        2.1969   -3.7126   -1.4740 H         1 ACP         0.4487
     34 H3B1        4.3831   -4.3452   -4.4619 H         1 ACP         0.1088
     35 H3B2        3.2698   -5.1032   -5.5968 H         1 ACP         0.1088
     36 H5'1        1.3501    0.2325   -2.1561 H         1 ACP         0.0327
     37 H5'2        2.1268   -1.3683   -2.0445 H         1 ACP         0.0327
     38 H4'         3.8046   -0.1390   -0.4011 H         1 ACP         0.1275
     39 H3'         1.6787   -1.7627    0.2719 H         1 ACP         0.0637
     40 HO3'        3.5553   -1.2733    1.4913 H         1 ACP         0.4127
     41 H2'         0.0002   -0.0084   -0.0014 H         1 ACP         0.0692
     42 HO2'       -0.1554   -0.9852    2.0577 H         1 ACP         0.4431
     43 H1'         1.7718    1.9211    1.6015 H         1 ACP         0.1199
     44 H8         -1.1244    1.3534   -1.1987 H         1 ACP         0.2941
     45 HN61       -2.5259    5.6573   -1.4336 H         1 ACP         0.4754
     46 HN62       -2.1416    7.2600   -0.8539 H         1 ACP         0.4754
     47 H2          1.6509    6.5764    1.8088 H         1 ACP         0.0886
     48 H48        -0.2190    7.4917    0.6033 H         1 ACP         0.4707
@<TRIPOS>BOND
     1    1    2 2
     2    1    3 1
     3    1    4 1
     4    1    8 1
     5    3   32 1
     6    4   33 1
     7    5    6 2
     8    5    7 1
     9    5    8 1
    10    5   12 1
    11    8   34 1
    12    8   35 1
    13    9   10 2
    14    9   11 1
    15    9   12 1
    16    9   13 1
    17   13   14 1
    18   14   15 1
    19   14   36 1
    20   14   37 1
    21   15   16 1
    22   15   17 1
    23   15   38 1
    24   16   21 1
    25   17   18 1
    26   17   19 1
    27   17   39 1
    28   18   40 1
    29   19   20 1
    30   19   21 1
    31   19   41 1
    32   20   42 1
    33   21   22 1
    34   21   43 1
    35   22   23 ar
    36   22   31 ar
    37   23   24 ar
    38   23   44 1
    39   24   25 ar
    40   25   26 ar
    41   25   31 ar
    42   26   27 1
    43   26   28 ar
    44   27   45 1
    45   27   46 1
    46   28   29 ar
    47   28   48 1
    48   29   30 ar
    49   29   47 1
    50   30   31 ar
@<TRIPOS>SUBSTRUCTURE
     1 ACP         1 GROUP 0 A     ****
@<TRIPOS>MOLECULE
[[5-(6-amino-1,8-dihydropurine-6,8-diylium-7-id-9-yl)-3,4-dihydroxy-tetrahydrofuran-2-yl]methoxy-oxido-phosphoryl]oxy-(phosphonomethyl)phosphinate
   48    50     1     0     0
SMALL
USER_CHARGES

@<TRIPOS>ATOM
      1 PG          1.6527   -4.8465   -4.4140 P.3       1 ACP         1.6558
      2 O1G         2.1785   -3.7546   -5.2965 O.2       1 ACP        -0.9020
      3 O2G         2.5664   -5.2015   -3.1298 O.3       1 ACP        -0.8036
      4 O3G         1.4382   -6.2765   -5.1342 O.3       1 ACP        -0.8036
      5 PB         -0.2903   -3.0564   -2.5836 P.3       1 ACP         1.4945
      6 O1B         0.6199   -3.1949   -1.3853 O.co2     1 ACP        -0.8481
      7 O2B        -1.7891   -2.9203   -2.4472 O.co2     1 ACP        -0.8481
      8 C3B         0.0335   -4.5039   -3.6884 C.3       1 ACP        -0.6636
      9 PA          0.1610   -0.2655   -3.4854 P.3       1 ACP         1.6023
     10 O1A        -1.3031    0.1010   -3.3725 O.co2     1 ACP        -0.8673
     11 O2A         1.0247    0.3365   -4.5724 O.co2     1 ACP        -0.8673
     12 O3A         0.2823   -1.8920   -3.5712 O.3       1 ACP        -0.8150
     13 O5'         0.8969   -0.0131   -2.0467 O.3       1 ACP        -0.5522
     14 C5'         2.2816   -0.2918   -1.9206 C.3       1 ACP         0.2181
     15 C4'         2.7248    0.0226   -0.4980 C.3       1 ACP         0.0915
     16 O4'         2.4697    1.4219   -0.2462 O.3       1 ACP        -0.3675
     17 C3'         1.9404   -0.7419    0.5596 C.3       1 ACP         0.0748
     18 O3'         2.7418   -0.8086    1.7389 O.3       1 ACP        -0.5646
     19 C2'         0.7477    0.1630    0.7858 C.3       1 ACP         0.0804
     20 O2'         0.1373   -0.0577    2.0407 O.3       1 ACP        -0.5882
     21 C1'         1.3733    1.5427    0.6747 C.3       1 ACP         0.3809
     22 N9          0.4520    2.5240    0.1767 N.pl3     1 ACP        -0.4412
     23 C8          0.1798    2.8712   -1.2933 C.ar      1 ACP         0.1936
     24 N7         -0.7494    3.8400   -1.3610 N.2       1 ACP        -0.2746
     25 C5         -1.0173    4.0603   -0.0358 C.ar      1 ACP        -0.1386
     26 C6         -2.0105    5.0717    0.4241 C.ar      1 ACP         0.4778
     27 N6         -2.6723    5.7982   -0.4628 N.pl3     1 ACP        -0.8290
     28 N1         -2.1445    5.1522    1.7502 N.pl3     1 ACP        -0.6985
     29 C2         -1.3755    4.3143    2.6426 C.ar      1 ACP         0.6179
     30 N3         -0.5075    3.4292    2.2616 N.ar      1 ACP        -0.5105
     31 C4         -0.3667    3.3425    0.9070 C.ar      1 ACP         0.2753
     32 HOG2        3.4872   -5.5082   -3.2721 H         1 ACP         0.4487
     33 HOG3        2.2103   -6.7245   -5.5404 H         1 ACP         0.4487
     34 H3B1       -0.6852   -4.4130   -4.5107 H         1 ACP         0.1088
     35 H3B2       -0.2523   -5.3907   -3.1112 H         1 ACP         0.1088
     36 H5'1        2.4523   -1.3484   -2.1500 H         1 ACP         0.0327
     37 H5'2        2.8334    0.3233   -2.6385 H         1 ACP         0.0327
     38 H4'         3.8046   -0.1390   -0.4011 H         1 ACP         0.1275
     39 H3'         1.6787   -1.7627    0.2719 H         1 ACP         0.0637
     40 HO3'        2.2231   -1.2979    2.3952 H         1 ACP         0.4127
     41 H2'         0.0002   -0.0084   -0.0014 H         1 ACP         0.0692
     42 HO2'       -0.6132    0.5577    2.1063 H         1 ACP         0.4431
     43 H1'         1.7718    1.9211    1.6015 H         1 ACP         0.1199
     44 H8          0.6089    2.4651   -2.2147 H         1 ACP         0.2941
     45 HN61       -2.5055    5.6680   -1.4503 H         1 ACP         0.4754
     46 HN62       -3.3462    6.4841   -0.1542 H         1 ACP         0.4754
     47 H2         -1.5932    4.4937    3.7066 H         1 ACP         0.0886
     48 H48        -2.8098    5.8270    2.1160 H         1 ACP         0.4707
@<TRIPOS>BOND
     1    1    2 2
     2    1    3 1
     3    1    4 1
     4    1    8 1
     5    3   32 1
     6    4   33 1
     7    5    6 2
     8    5    7 1
     9    5    8 1
    10    5   12 1
    11    8   34 1
    12    8   35 1
    13    9   10 2
    14    9   11 1
    15    9   12 1
    16    9   13 1
    17   13   14 1
    18   14   15 1
    19   14   36 1
    20   14   37 1
    21   15   16 1
    22   15   17 1
    23   15   38 1
    24   16   21 1
    25   17   18 1
    26   17   19 1
    27   17   39 1
    28   18   40 1
    29   19   20 1
    30   19   21 1
    31   19   41 1
    32   20   42 1
    33   21   22 1
    34   21   43 1
    35   22   23 ar
    36   22   31 ar
    37   23   24 ar
    38   23   44 1
    39   24   25 ar
    40   25   26 ar
    41   25   31 ar
    42   26   27 1
    43   26   28 ar
    44   27   45 1
    45   27   46 1
    46   28   29 ar
    47   28   48 1
    48   29   30 ar
    49   29   47 1
    50   30   31 ar
@<TRIPOS>SUBSTRUCTURE
     1 ACP         1 GROUP 0 A     ****
@<TRIPOS>MOLECULE
[[5-(6-amino-1,8-dihydropurine-6,8-diylium-7-id-9-yl)-3,4-dihydroxy-tetrahydrofuran-2-yl]methoxy-oxido-phosphoryl]oxy-(phosphonomethyl)phosphinate
   48    50     1     0     0
SMALL
USER_CHARGES

@<TRIPOS>ATOM
      1 PG         -0.4914   -2.9728   -3.8509 P.3       1 ACP         1.6558
      2 O1G        -1.7965   -3.6040   -4.2326 O.2       1 ACP        -0.9020
      3 O2G         0.2805   -3.6685   -2.6138 O.3       1 ACP        -0.8036
      4 O3G        -0.5733   -1.4178   -3.4209 O.3       1 ACP        -0.8036
      5 PB          2.4407   -2.2547   -4.9541 P.3       1 ACP         1.4945
      6 O1B         3.1738   -2.4437   -6.2620 O.co2     1 ACP        -0.8481
      7 O2B         2.9866   -2.7672   -3.6415 O.co2     1 ACP        -0.8481
      8 C3B         0.7489   -2.9717   -5.1652 C.3       1 ACP        -0.6636
      9 PA          2.8587    0.6155   -4.3269 P.3       1 ACP         1.6023
     10 O1A         1.9171    1.7961   -4.2263 O.co2     1 ACP        -0.8673
     11 O2A         4.1093    0.6971   -5.1750 O.co2     1 ACP        -0.8673
     12 O3A         2.0007   -0.6924   -4.7968 O.3       1 ACP        -0.8150
     13 O5'         3.2885    0.1337   -2.8242 O.3       1 ACP        -0.5522
     14 C5'         2.2816   -0.2918   -1.9206 C.3       1 ACP         0.2181
     15 C4'         2.7248    0.0226   -0.4980 C.3       1 ACP         0.0915
     16 O4'         2.4697    1.4219   -0.2462 O.3       1 ACP        -0.3675
     17 C3'         1.9404   -0.7419    0.5596 C.3       1 ACP         0.0748
     18 O3'         2.7418   -0.8086    1.7389 O.3       1 ACP        -0.5646
     19 C2'         0.7477    0.1630    0.7858 C.3       1 ACP         0.0804
     20 O2'         0.1373   -0.0577    2.0407 O.3       1 ACP        -0.5882
     21 C1'         1.3733    1.5427    0.6747 C.3       1 ACP         0.3809
     22 N9          0.4520    2.5240    0.1767 N.pl3     1 ACP        -0.4412
     23 C8         -1.0660    2.5608    0.3999 C.ar      1 ACP         0.1936
     24 N7         -1.5852    3.6333   -0.2221 N.2       1 ACP        -0.2746
     25 C5         -0.4682    4.1996   -0.7771 C.ar      1 ACP        -0.1386
     26 C6         -0.5216    5.4476   -1.5899 C.ar      1 ACP         0.4778
     27 N6         -1.6813    6.0510   -1.7982 N.pl3     1 ACP        -0.8290
     28 N1          0.6621    5.8575   -2.0523 N.pl3     1 ACP        -0.6985
     29 C2          1.8795    5.1301   -1.7717 C.ar      1 ACP         0.6179
     30 N3          1.9458    4.0434   -1.0670 N.ar      1 ACP        -0.5105
     31 C4          0.7388    3.6199   -0.5917 C.ar      1 ACP         0.2753
     32 HOG2       -0.1643   -3.7125   -1.7407 H         1 ACP         0.4487
     33 HOG3       -1.1306   -1.1656   -2.6542 H         1 ACP         0.4487
     34 H3B1        0.9064   -4.0117   -5.4726 H         1 ACP         0.1088
     35 H3B2        0.3072   -2.4490   -6.0212 H         1 ACP         0.1088
     36 H5'1        1.3501    0.2325   -2.1561 H         1 ACP         0.0327
     37 H5'2        2.1268   -1.3683   -2.0445 H         1 ACP         0.0327
     38 H4'         3.8046   -0.1390   -0.4011 H         1 ACP         0.1275
     39 H3'         1.6787   -1.7627    0.2719 H         1 ACP         0.0637
     40 HO3'        2.2231   -1.2979    2.3952 H         1 ACP         0.4127
     41 H2'         0.0002   -0.0084   -0.0014 H         1 ACP         0.0692
     42 HO2'       -0.1554   -0.9852    2.0577 H         1 ACP         0.4431
     43 H1'         1.7718    1.9211    1.6015 H         1 ACP         0.1199
     44 H8         -1.7235    1.8833    0.9537 H         1 ACP         0.2941
     45 HN61       -2.5296    5.6672   -1.4072 H         1 ACP         0.4754
     46 HN62       -1.7205    6.8969   -2.3483 H         1 ACP         0.4754
     47 H2          2.7750    5.5878   -2.2190 H         1 ACP         0.0886
     48 H48         0.6808    6.7046   -2.6128 H         1 ACP         0.4707
@<TRIPOS>BOND
     1    1    2 2
     2    1    3 1
     3    1    4 1
     4    1    8 1
     5    3   32 1
     6    4   33 1
     7    5    6 2
     8    5    7 1
     9    5    8 1
    10    5   12 1
    11    8   34 1
    12    8   35 1
    13    9   10 2
    14    9   11 1
    15    9   12 1
    16    9   13 1
    17   13   14 1
    18   14   15 1
    19   14   36 1
    20   14   37 1
    21   15   16 1
    22   15   17 1
    23   15   38 1
    24   16   21 1
    25   17   18 1
    26   17   19 1
    27   17   39 1
    28   18   40 1
    29   19   20 1
    30   19   21 1
    31   19   41 1
    32   20   42 1
    33   21   22 1
    34   21   43 1
    35   22   23 ar
    36   22   31 ar
    37   23   24 ar
    38   23   44 1
    39   24   25 ar
    40   25   26 ar
    41   25   31 ar
    42   26   27 1
    43   26   28 ar
    44   27   45 1
    45   27   46 1
    46   28   29 ar
    47   28   48 1
    48   29   30 ar
    49   29   47 1
    50   30   31 ar
@<TRIPOS>SUBSTRUCTURE
     1 ACP         1 GROUP 0 A     ****
@<TRIPOS>MOLECULE
[[5-(6-amino-1,8-dihydropurine-6,8-diylium-7-id-9-yl)-3,4-dihydroxy-tetrahydrofuran-2-yl]methoxy-oxido-phosphoryl]oxy-(phosphonomethyl)phosphinate
   48    50     1     0     0
SMALL
USER_CHARGES

@<TRIPOS>ATOM
      1 PG          1.3065   -4.5421   -5.4964 P.3       1 ACP         1.6558
      2 O1G         2.0902   -4.9438   -6.7096 O.2       1 ACP        -0.9020
      3 O2G         0.2136   -5.6182   -4.9886 O.3       1 ACP        -0.8036
      4 O3G         0.4554   -3.1768   -5.6421 O.3       1 ACP        -0.8036
      5 PB          3.6383   -2.9593   -3.9514 P.3       1 ACP         1.4945
      6 O1B         4.6529   -3.3016   -5.0177 O.co2     1 ACP        -0.8481
      7 O2B         4.0201   -2.7875   -2.4994 O.co2     1 ACP        -0.8481
      8 C3B         2.3113   -4.2456   -4.0240 C.3       1 ACP        -0.6636
      9 PA          3.0640   -0.0874   -4.4291 P.3       1 ACP         1.6023
     10 O1A         1.8214    0.6556   -4.8701 O.co2     1 ACP        -0.8673
     11 O2A         4.3865    0.1390   -5.1289 O.co2     1 ACP        -0.8673
     12 O3A         2.7413   -1.6884   -4.4406 O.3       1 ACP        -0.8150
     13 O5'         3.2885    0.1337   -2.8242 O.3       1 ACP        -0.5522
     14 C5'         2.2816   -0.2918   -1.9206 C.3       1 ACP         0.2181
     15 C4'         2.7248    0.0226   -0.4980 C.3       1 ACP         0.0915
     16 O4'         2.4697    1.4219   -0.2462 O.3       1 ACP        -0.3675
     17 C3'         1.9404   -0.7419    0.5596 C.3       1 ACP         0.0748
     18 O3'         2.7418   -0.8086    1.7389 O.3       1 ACP        -0.5646
     19 C2'         0.7477    0.1630    0.7858 C.3       1 ACP         0.0804
     20 O2'         0.1373   -0.0577    2.0407 O.3       1 ACP        -0.5882
     21 C1'         1.3733    1.5427    0.6747 C.3       1 ACP         0.3809
     22 N9          0.4520    2.5240    0.1767 N.pl3     1 ACP        -0.4412
     23 C8          0.5793    3.3338   -1.1209 C.ar      1 ACP         0.1936
     24 N7         -0.4807    4.1508   -1.2458 N.2       1 ACP        -0.2746
     25 C5         -1.1921    3.8572   -0.1126 C.ar      1 ACP        -0.1386
     26 C6         -2.4855    4.5203    0.2163 C.ar      1 ACP         0.4778
     27 N6         -2.9873    5.4319   -0.6020 N.pl3     1 ACP        -0.8290
     28 N1         -3.0414    4.1119    1.3596 N.pl3     1 ACP        -0.6985
     29 C2         -2.4169    3.1071    2.1904 C.ar      1 ACP         0.6179
     30 N3         -1.2928    2.5191    1.9210 N.ar      1 ACP        -0.5105
     31 C4         -0.7202    2.9326    0.7534 C.ar      1 ACP         0.2753
     32 HOG2       -0.5103   -5.8826   -5.5953 H         1 ACP         0.4487
     33 HOG3       -0.2365   -3.1198   -6.3350 H         1 ACP         0.4487
     34 H3B1        1.6289   -4.0112   -3.1993 H         1 ACP         0.1088
     35 H3B2        2.8002   -5.1942   -3.7743 H         1 ACP         0.1088
     36 H5'1        1.3501    0.2325   -2.1561 H         1 ACP         0.0327
     37 H5'2        2.1268   -1.3683   -2.0445 H         1 ACP         0.0327
     38 H4'         3.8046   -0.1390   -0.4011 H         1 ACP         0.1275
     39 H3'         1.6787   -1.7627    0.2719 H         1 ACP         0.0637
     40 HO3'        3.5553   -1.2733    1.4913 H         1 ACP         0.4127
     41 H2'         0.0002   -0.0084   -0.0014 H         1 ACP         0.0692
     42 HO2'        0.8091    0.1203    2.7213 H         1 ACP         0.4431
     43 H1'         1.7718    1.9211    1.6015 H         1 ACP         0.1199
     44 H8          1.3565    3.3309   -1.8916 H         1 ACP         0.2941
     45 HN61       -3.8634    5.8832   -0.3817 H         1 ACP         0.4754
     46 HN62       -2.4948    5.6788   -1.4484 H         1 ACP         0.4754
     47 H2         -2.9911    2.8734    3.1000 H         1 ACP         0.0886
     48 H48        -3.9253    4.5332    1.6302 H         1 ACP         0.4707
@<TRIPOS>BOND
     1    1    2 2
     2    1    3 1
     3    1    4 1
     4    1    8 1
     5    3   32 1
     6    4   33 1
     7    5    6 2
     8    5    7 1
     9    5    8 1
    10    5   12 1
    11    8   34 1
    12    8   35 1
    13    9   10 2
    14    9   11 1
    15    9   12 1
    16    9   13 1
    17   13   14 1
    18   14   15 1
    19   14   36 1
    20   14   37 1
    21   15   16 1
    22   15   17 1
    23   15   38 1
    24   16   21 1
    25   17   18 1
    26   17   19 1
    27   17   39 1
    28   18   40 1
    29   19   20 1
    30   19   21 1
    31   19   41 1
    32   20   42 1
    33   21   22 1
    34   21   43 1
    35   22   23 ar
    36   22   31 ar
    37   23   24 ar
    38   23   44 1
    39   24   25 ar
    40   25   26 ar
    41   25   31 ar
    42   26   27 1
    43   26   28 ar
    44   27   45 1
    45   27   46 1
    46   28   29 ar
    47   28   48 1
    48   29   30 ar
    49   29   47 1
    50   30   31 ar
@<TRIPOS>SUBSTRUCTURE
     1 ACP         1 GROUP 0 A     ****
@<TRIPOS>MOLECULE
[[5-(6-amino-1,8-dihydropurine-6,8-diylium-7-id-9-yl)-3,4-dihydroxy-tetrahydrofuran-2-yl]methoxy-oxido-phosphoryl]oxy-(phosphonomethyl)phosphinate
   48    50     1     0     0
SMALL
USER_CHARGES

@<TRIPOS>ATOM
      1 PG          2.1609    1.2186   -8.0034 P.3       1 ACP         1.6558
      2 O1G         3.1421    0.1048   -7.7939 O.2       1 ACP        -0.9020
      3 O2G         0.7815    0.8004   -8.7333 O.3       1 ACP        -0.8036
      4 O3G         2.6983    2.4579   -8.8895 O.3       1 ACP        -0.8036
      5 PB          0.7207    1.1029   -5.1325 P.3       1 ACP         1.4945
      6 O1B        -0.5447    0.5313   -5.7288 O.co2     1 ACP        -0.8481
      7 O2B         0.7063    2.0010   -3.9173 O.co2     1 ACP        -0.8481
      8 C3B         1.5995    2.0140   -6.4810 C.3       1 ACP        -0.6636
      9 PA          3.3317   -0.0541   -4.3262 P.3       1 ACP         1.6023
     10 O1A         4.1267    0.9765   -5.0986 O.co2     1 ACP        -0.8673
     11 O2A         3.8308   -1.4772   -4.2013 O.co2     1 ACP        -0.8673
     12 O3A         1.8123   -0.0905   -4.9242 O.3       1 ACP        -0.8150
     13 O5'         3.0199    0.5139   -2.8245 O.3       1 ACP        -0.5522
     14 C5'         2.2816   -0.2918   -1.9206 C.3       1 ACP         0.2181
     15 C4'         2.7248    0.0226   -0.4980 C.3       1 ACP         0.0915
     16 O4'         2.4697    1.4219   -0.2462 O.3       1 ACP        -0.3675
     17 C3'         1.9404   -0.7419    0.5596 C.3       1 ACP         0.0748
     18 O3'         2.7418   -0.8086    1.7389 O.3       1 ACP        -0.5646
     19 C2'         0.7477    0.1630    0.7858 C.3       1 ACP         0.0804
     20 O2'         0.1373   -0.0577    2.0407 O.3       1 ACP        -0.5882
     21 C1'         1.3733    1.5427    0.6747 C.3       1 ACP         0.3809
     22 N9          0.4520    2.5240    0.1767 N.pl3     1 ACP        -0.4412
     23 C8         -1.0660    2.5608    0.3999 C.ar      1 ACP         0.1936
     24 N7         -1.5852    3.6333   -0.2221 N.2       1 ACP        -0.2746
     25 C5         -0.4682    4.1996   -0.7771 C.ar      1 ACP        -0.1386
     26 C6         -0.5216    5.4476   -1.5899 C.ar      1 ACP         0.4778
     27 N6         -1.6813    6.0510   -1.7982 N.pl3     1 ACP        -0.8290
     28 N1          0.6621    5.8575   -2.0523 N.pl3     1 ACP        -0.6985
     29 C2          1.8795    5.1301   -1.7717 C.ar      1 ACP         0.6179
     30 N3          1.9458    4.0434   -1.0670 N.ar      1 ACP        -0.5105
     31 C4          0.7388    3.6199   -0.5917 C.ar      1 ACP         0.2753
     32 HOG2        0.8187    0.4166   -9.6351 H         1 ACP         0.4487
     33 HOG3        2.9880    2.2923   -9.8118 H         1 ACP         0.4487
     34 H3B1        2.4738    2.4723   -6.0051 H         1 ACP         0.1088
     35 H3B2        0.9308    2.8311   -6.7749 H         1 ACP         0.1088
     36 H5'1        1.2154   -0.0780   -2.0455 H         1 ACP         0.0327
     37 H5'2        2.4646   -1.3453   -2.1548 H         1 ACP         0.0327
     38 H4'         3.8046   -0.1390   -0.4011 H         1 ACP         0.1275
     39 H3'         1.6787   -1.7627    0.2719 H         1 ACP         0.0637
     40 HO3'        2.2231   -1.2979    2.3952 H         1 ACP         0.4127
     41 H2'         0.0002   -0.0084   -0.0014 H         1 ACP         0.0692
     42 HO2'       -0.1554   -0.9852    2.0577 H         1 ACP         0.4431
     43 H1'         1.7718    1.9211    1.6015 H         1 ACP         0.1199
     44 H8         -1.7235    1.8833    0.9537 H         1 ACP         0.2941
     45 HN61       -2.5296    5.6672   -1.4072 H         1 ACP         0.4754
     46 HN62       -1.7205    6.8969   -2.3483 H         1 ACP         0.4754
     47 H2          2.7750    5.5878   -2.2190 H         1 ACP         0.0886
     48 H48         0.6808    6.7046   -2.6128 H         1 ACP         0.4707
@<TRIPOS>BOND
     1    1    2 2
     2    1    3 1
     3    1    4 1
     4    1    8 1
     5    3   32 1
     6    4   33 1
     7    5    6 2
     8    5    7 1
     9    5    8 1
    10    5   12 1
    11    8   34 1
    12    8   35 1
    13    9   10 2
    14    9   11 1
    15    9   12 1
    16    9   13 1
    17   13   14 1
    18   14   15 1
    19   14   36 1
    20   14   37 1
    21   15   16 1
    22   15   17 1
    23   15   38 1
    24   16   21 1
    25   17   18 1
    26   17   19 1
    27   17   39 1
    28   18   40 1
    29   19   20 1
    30   19   21 1
    31   19   41 1
    32   20   42 1
    33   21   22 1
    34   21   43 1
    35   22   23 ar
    36   22   31 ar
    37   23   24 ar
    38   23   44 1
    39   24   25 ar
    40   25   26 ar
    41   25   31 ar
    42   26   27 1
    43   26   28 ar
    44   27   45 1
    45   27   46 1
    46   28   29 ar
    47   28   48 1
    48   29   30 ar
    49   29   47 1
    50   30   31 ar
@<TRIPOS>SUBSTRUCTURE
     1 ACP         1 GROUP 0 A     ****
@<TRIPOS>MOLECULE
[[5-(6-amino-1,8-dihydropurine-6,8-diylium-7-id-9-yl)-3,4-dihydroxy-tetrahydrofuran-2-yl]methoxy-oxido-phosphoryl]oxy-(phosphonomethyl)phosphinate
   48    50     1     0     0
SMALL
USER_CHARGES

@<TRIPOS>ATOM
      1 PG          0.7237   -0.7214    6.9786 P.3       1 ACP         1.6558
      2 O1G         1.5116   -1.4267    5.9160 O.2       1 ACP        -0.9020
      3 O2G         0.3909    0.8312    6.6803 O.3       1 ACP        -0.8036
      4 O3G         1.4080   -0.6884    8.4416 O.3       1 ACP        -0.8036
      5 PB         -2.2182   -1.5775    6.0080 P.3       1 ACP         1.4945
      6 O1B        -2.5296   -0.1767    5.5341 O.co2     1 ACP        -0.8481
      7 O2B        -3.2843   -2.5029    6.5470 O.co2     1 ACP        -0.8481
      8 C3B        -0.9030   -1.4393    7.3010 C.3       1 ACP        -0.6636
      9 PA         -0.7248   -3.8665    4.8519 P.3       1 ACP         1.6023
     10 O1A        -1.8767   -4.8475    4.8179 O.co2     1 ACP        -0.8673
     11 O2A         0.3435   -3.9689    5.9188 O.co2     1 ACP        -0.8673
     12 O3A        -1.3354   -2.3518    4.8765 O.3       1 ACP        -0.8150
     13 O5'         0.0100   -3.8402    3.3910 O.3       1 ACP        -0.5522
     14 C5'        -0.7840   -3.8935    2.2172 C.3       1 ACP         0.2181
     15 C4'        -0.0724   -3.1466    1.1027 C.3       1 ACP         0.0915
     16 O4'        -0.8674   -3.1929   -0.0945 O.3       1 ACP        -0.3675
     17 C3'         0.1338   -1.6715    1.4027 C.3       1 ACP         0.0748
     18 O3'         1.2893   -1.4445    2.1808 O.3       1 ACP        -0.5646
     19 C2'         0.2158   -1.0724    0.0128 C.3       1 ACP         0.0804
     20 O2'         1.5141   -1.2448   -0.5513 O.3       1 ACP        -0.5882
     21 C1'        -0.7897   -1.9176   -0.7583 C.3       1 ACP         0.3809
     22 N9         -2.1040   -1.3333   -0.7704 N.pl3     1 ACP        -0.4412
     23 C8         -3.2124   -1.5345    0.2719 C.ar      1 ACP         0.1936
     24 N7         -4.2964   -0.8234   -0.0828 N.2       1 ACP        -0.2746
     25 C5         -3.8754   -0.2386   -1.2478 C.ar      1 ACP        -0.1386
     26 C6         -4.7432    0.6719   -2.0470 C.ar      1 ACP         0.4778
     27 N6         -5.9725    0.9415   -1.6366 N.pl3     1 ACP        -0.8290
     28 N1         -4.1703    1.1517   -3.1536 N.pl3     1 ACP        -0.6985
     29 C2         -2.8174    0.7994   -3.5215 C.ar      1 ACP         0.6179
     30 N3         -2.0475    0.0097   -2.8393 N.ar      1 ACP        -0.5105
     31 C4         -2.6278   -0.4836   -1.7071 C.ar      1 ACP         0.2753
     32 HOG2        1.1327    1.4603    6.5539 H         1 ACP         0.4487
     33 HOG3        2.2837   -0.2595    8.5470 H         1 ACP         0.4487
     34 H3B1       -0.7472   -2.4585    7.6723 H         1 ACP         0.1088
     35 H3B2       -1.3490   -0.8653    8.1212 H         1 ACP         0.1088
     36 H5'1       -0.9357   -4.9414    1.9397 H         1 ACP         0.0327
     37 H5'2       -1.7557   -3.4349    2.4259 H         1 ACP         0.0327
     38 H4'         0.8883   -3.6447    0.8783 H         1 ACP         0.1275
     39 H3'        -0.7368   -1.2359    1.9871 H         1 ACP         0.0637
     40 HO3'        1.3407   -0.4871    2.3218 H         1 ACP         0.4127
     41 H2'        -0.0343   -0.0280    0.0196 H         1 ACP         0.0692
     42 HO2'        2.1443   -0.7955    0.0378 H         1 ACP         0.4431
     43 H1'        -0.5175   -2.1046   -1.7826 H         1 ACP         0.1199
     44 H8         -3.2310   -2.1319    1.1889 H         1 ACP         0.2941
     45 HN61       -6.3230    0.5316   -0.7829 H         1 ACP         0.4754
     46 HN62       -6.5628    1.5584   -2.1760 H         1 ACP         0.4754
     47 H2         -2.4822    1.2710   -4.4579 H         1 ACP         0.0886
     48 H48        -4.7200    1.7780   -3.7346 H         1 ACP         0.4707
@<TRIPOS>BOND
     1    1    2 2
     2    1    3 1
     3    1    4 1
     4    1    8 1
     5    3   32 1
     6    4   33 1
     7    5    6 2
     8    5    7 1
     9    5    8 1
    10    5   12 1
    11    8   34 1
    12    8   35 1
    13    9   10 2
    14    9   11 1
    15    9   12 1
    16    9   13 1
    17   13   14 1
    18   14   15 1
    19   14   36 1
    20   14   37 1
    21   15   16 1
    22   15   17 1
    23   15   38 1
    24   16   21 1
    25   17   18 1
    26   17   19 1
    27   17   39 1
    28   18   40 1
    29   19   20 1
    30   19   21 1
    31   19   41 1
    32   20   42 1
    33   21   22 1
    34   21   43 1
    35   22   23 ar
    36   22   31 ar
    37   23   24 ar
    38   23   44 1
    39   24   25 ar
    40   25   26 ar
    41   25   31 ar
    42   26   27 1
    43   26   28 ar
    44   27   45 1
    45   27   46 1
    46   28   29 ar
    47   28   48 1
    48   29   30 ar
    49   29   47 1
    50   30   31 ar
@<TRIPOS>SUBSTRUCTURE
     1 ACP         1 GROUP 0 A     ****
@<TRIPOS>MOLECULE
[[5-(6-amino-1,8-dihydropurine-6,8-diylium-7-id-9-yl)-3,4-dihydroxy-tetrahydrofuran-2-yl]methoxy-oxido-phosphoryl]oxy-(phosphonomethyl)phosphinate
   48    50     1     0     0
SMALL
USER_CHARGES

@<TRIPOS>ATOM
      1 PG          4.0082    1.6719   -5.9585 P.3       1 ACP         1.6558
      2 O1G         2.9026    2.1395   -6.8564 O.2       1 ACP        -0.9020
      3 O2G         3.6540    1.6360   -4.3826 O.3       1 ACP        -0.8036
      4 O3G         5.3675    2.5424   -6.0222 O.3       1 ACP        -0.8036
      5 PB          3.4755   -1.4893   -6.1885 P.3       1 ACP         1.4945
      6 O1B         4.3129   -2.6986   -6.5349 O.co2     1 ACP        -0.8481
      7 O2B         2.2001   -1.1526   -6.9258 O.co2     1 ACP        -0.8481
      8 C3B         4.5799   -0.0094   -6.2930 C.3       1 ACP        -0.6636
      9 PA          2.1358   -2.2685   -3.6578 P.3       1 ACP         1.6023
     10 O1A         2.4845   -3.7405   -3.7033 O.co2     1 ACP        -0.8673
     11 O2A         0.7432   -1.7950   -4.0135 O.co2     1 ACP        -0.8673
     12 O3A         3.2094   -1.4534   -4.5800 O.3       1 ACP        -0.8150
     13 O5'         2.5238   -1.6632   -2.1888 O.3       1 ACP        -0.5522
     14 C5'         2.2816   -0.2918   -1.9206 C.3       1 ACP         0.2181
     15 C4'         2.7248    0.0226   -0.4980 C.3       1 ACP         0.0915
     16 O4'         2.4697    1.4219   -0.2462 O.3       1 ACP        -0.3675
     17 C3'         1.9404   -0.7419    0.5596 C.3       1 ACP         0.0748
     18 O3'         2.7418   -0.8086    1.7389 O.3       1 ACP        -0.5646
     19 C2'         0.7477    0.1630    0.7858 C.3       1 ACP         0.0804
     20 O2'         0.1373   -0.0577    2.0407 O.3       1 ACP        -0.5882
     21 C1'         1.3733    1.5427    0.6747 C.3       1 ACP         0.3809
     22 N9          0.4520    2.5240    0.1767 N.pl3     1 ACP        -0.4412
     23 C8         -0.7463    2.2774   -0.7501 C.ar      1 ACP         0.1936
     24 N7         -1.3714    3.4419   -0.9948 N.2       1 ACP        -0.2746
     25 C5         -0.6104    4.3223   -0.2723 C.ar      1 ACP        -0.1386
     26 C6         -0.9062    5.7820   -0.2194 C.ar      1 ACP         0.4778
     27 N6         -1.9385    6.2713   -0.8881 N.pl3     1 ACP        -0.8290
     28 N1         -0.0613    6.4906    0.5336 N.pl3     1 ACP        -0.6985
     29 C2          1.0416    5.8662    1.2291 C.ar      1 ACP         0.6179
     30 N3          1.3146    4.5989    1.1954 N.ar      1 ACP        -0.5105
     31 C4          0.4541    3.8697    0.4273 C.ar      1 ACP         0.2753
     32 HOG2        3.3941    2.4692   -3.9349 H         1 ACP         0.4487
     33 HOG3        5.3331    3.4949   -5.7906 H         1 ACP         0.4487
     34 H3B1        4.9941   -0.0224   -7.3075 H         1 ACP         0.1088
     35 H3B2        5.4108   -0.2072   -5.6063 H         1 ACP         0.1088
     36 H5'1        2.8430    0.3138   -2.6391 H         1 ACP         0.0327
     37 H5'2        1.2126   -0.0907   -2.0421 H         1 ACP         0.0327
     38 H4'         3.8046   -0.1390   -0.4011 H         1 ACP         0.1275
     39 H3'         1.6787   -1.7627    0.2719 H         1 ACP         0.0637
     40 HO3'        2.2231   -1.2979    2.3952 H         1 ACP         0.4127
     41 H2'         0.0002   -0.0084   -0.0014 H         1 ACP         0.0692
     42 HO2'       -0.1554   -0.9852    2.0577 H         1 ACP         0.4431
     43 H1'         1.7718    1.9211    1.6015 H         1 ACP         0.1199
     44 H8         -1.1244    1.3534   -1.1987 H         1 ACP         0.2941
     45 HN61       -2.5259    5.6573   -1.4336 H         1 ACP         0.4754
     46 HN62       -2.1416    7.2600   -0.8539 H         1 ACP         0.4754
     47 H2          1.6509    6.5764    1.8088 H         1 ACP         0.0886
     48 H48        -0.2190    7.4917    0.6033 H         1 ACP         0.4707
@<TRIPOS>BOND
     1    1    2 2
     2    1    3 1
     3    1    4 1
     4    1    8 1
     5    3   32 1
     6    4   33 1
     7    5    6 2
     8    5    7 1
     9    5    8 1
    10    5   12 1
    11    8   34 1
    12    8   35 1
    13    9   10 2
    14    9   11 1
    15    9   12 1
    16    9   13 1
    17   13   14 1
    18   14   15 1
    19   14   36 1
    20   14   37 1
    21   15   16 1
    22   15   17 1
    23   15   38 1
    24   16   21 1
    25   17   18 1
    26   17   19 1
    27   17   39 1
    28   18   40 1
    29   19   20 1
    30   19   21 1
    31   19   41 1
    32   20   42 1
    33   21   22 1
    34   21   43 1
    35   22   23 ar
    36   22   31 ar
    37   23   24 ar
    38   23   44 1
    39   24   25 ar
    40   25   26 ar
    41   25   31 ar
    42   26   27 1
    43   26   28 ar
    44   27   45 1
    45   27   46 1
    46   28   29 ar
    47   28   48 1
    48   29   30 ar
    49   29   47 1
    50   30   31 ar
@<TRIPOS>SUBSTRUCTURE
     1 ACP         1 GROUP 0 A     ****
@<TRIPOS>MOLECULE
[[5-(6-amino-1,8-dihydropurine-6,8-diylium-7-id-9-yl)-3,4-dihydroxy-tetrahydrofuran-2-yl]methoxy-oxido-phosphoryl]oxy-(phosphonomethyl)phosphinate
   48    50     1     0     0
SMALL
USER_CHARGES

@<TRIPOS>ATOM
      1 PG         -0.8320   -4.7613   -5.2538 P.3       1 ACP         1.6558
      2 O1G        -2.3197   -4.8928   -5.1237 O.2       1 ACP        -0.9020
      3 O2G        -0.3213   -3.5298   -6.1663 O.3       1 ACP        -0.8036
      4 O3G        -0.0760   -6.0412   -5.8862 O.3       1 ACP        -0.8036
      5 PB         -0.2903   -3.0564   -2.5836 P.3       1 ACP         1.4945
      6 O1B         0.6199   -3.1949   -1.3853 O.co2     1 ACP        -0.8481
      7 O2B        -1.7891   -2.9203   -2.4472 O.co2     1 ACP        -0.8481
      8 C3B         0.0335   -4.5039   -3.6884 C.3       1 ACP        -0.6636
      9 PA          0.1610   -0.2655   -3.4854 P.3       1 ACP         1.6023
     10 O1A        -1.3031    0.1010   -3.3725 O.co2     1 ACP        -0.8673
     11 O2A         1.0247    0.3365   -4.5724 O.co2     1 ACP        -0.8673
     12 O3A         0.2823   -1.8920   -3.5712 O.3       1 ACP        -0.8150
     13 O5'         0.8969   -0.0131   -2.0467 O.3       1 ACP        -0.5522
     14 C5'         2.2816   -0.2918   -1.9206 C.3       1 ACP         0.2181
     15 C4'         2.7248    0.0226   -0.4980 C.3       1 ACP         0.0915
     16 O4'         2.4697    1.4219   -0.2462 O.3       1 ACP        -0.3675
     17 C3'         1.9404   -0.7419    0.5596 C.3       1 ACP         0.0748
     18 O3'         2.7418   -0.8086    1.7389 O.3       1 ACP        -0.5646
     19 C2'         0.7477    0.1630    0.7858 C.3       1 ACP         0.0804
     20 O2'         0.1373   -0.0577    2.0407 O.3       1 ACP        -0.5882
     21 C1'         1.3733    1.5427    0.6747 C.3       1 ACP         0.3809
     22 N9          0.4520    2.5240    0.1767 N.pl3     1 ACP        -0.4412
     23 C8          0.1798    2.8712   -1.2933 C.ar      1 ACP         0.1936
     24 N7         -0.7494    3.8400   -1.3610 N.2       1 ACP        -0.2746
     25 C5         -1.0173    4.0603   -0.0358 C.ar      1 ACP        -0.1386
     26 C6         -2.0105    5.0717    0.4241 C.ar      1 ACP         0.4778
     27 N6         -2.6723    5.7982   -0.4628 N.pl3     1 ACP        -0.8290
     28 N1         -2.1445    5.1522    1.7502 N.pl3     1 ACP        -0.6985
     29 C2         -1.3755    4.3143    2.6426 C.ar      1 ACP         0.6179
     30 N3         -0.5075    3.4292    2.2616 N.ar      1 ACP        -0.5105
     31 C4         -0.3667    3.3425    0.9070 C.ar      1 ACP         0.2753
     32 HOG2       -0.5918   -3.4924   -7.1084 H         1 ACP         0.4487
     33 HOG3       -0.3144   -6.3346   -6.7913 H         1 ACP         0.4487
     34 H3B1       -0.1343   -5.3913   -3.0676 H         1 ACP         0.1088
     35 H3B2        1.1049   -4.4720   -3.9170 H         1 ACP         0.1088
     36 H5'1        2.4523   -1.3484   -2.1500 H         1 ACP         0.0327
     37 H5'2        2.8334    0.3233   -2.6385 H         1 ACP         0.0327
     38 H4'         3.8046   -0.1390   -0.4011 H         1 ACP         0.1275
     39 H3'         1.6787   -1.7627    0.2719 H         1 ACP         0.0637
     40 HO3'        2.2231   -1.2979    2.3952 H         1 ACP         0.4127
     41 H2'         0.0002   -0.0084   -0.0014 H         1 ACP         0.0692
     42 HO2'       -0.6132    0.5577    2.1063 H         1 ACP         0.4431
     43 H1'         1.7718    1.9211    1.6015 H         1 ACP         0.1199
     44 H8          0.6089    2.4651   -2.2147 H         1 ACP         0.2941
     45 HN61       -2.5055    5.6680   -1.4503 H         1 ACP         0.4754
     46 HN62       -3.3462    6.4841   -0.1542 H         1 ACP         0.4754
     47 H2         -1.5932    4.4937    3.7066 H         1 ACP         0.0886
     48 H48        -2.8098    5.8270    2.1160 H         1 ACP         0.4707
@<TRIPOS>BOND
     1    1    2 2
     2    1    3 1
     3    1    4 1
     4    1    8 1
     5    3   32 1
     6    4   33 1
     7    5    6 2
     8    5    7 1
     9    5    8 1
    10    5   12 1
    11    8   34 1
    12    8   35 1
    13    9   10 2
    14    9   11 1
    15    9   12 1
    16    9   13 1
    17   13   14 1
    18   14   15 1
    19   14   36 1
    20   14   37 1
    21   15   16 1
    22   15   17 1
    23   15   38 1
    24   16   21 1
    25   17   18 1
    26   17   19 1
    27   17   39 1
    28   18   40 1
    29   19   20 1
    30   19   21 1
    31   19   41 1
    32   20   42 1
    33   21   22 1
    34   21   43 1
    35   22   23 ar
    36   22   31 ar
    37   23   24 ar
    38   23   44 1
    39   24   25 ar
    40   25   26 ar
    41   25   31 ar
    42   26   27 1
    43   26   28 ar
    44   27   45 1
    45   27   46 1
    46   28   29 ar
    47   28   48 1
    48   29   30 ar
    49   29   47 1
    50   30   31 ar
@<TRIPOS>SUBSTRUCTURE
     1 ACP         1 GROUP 0 A     ****
@<TRIPOS>MOLECULE
[[5-(6-amino-1,8-dihydropurine-6,8-diylium-7-id-9-yl)-3,4-dihydroxy-tetrahydrofuran-2-yl]methoxy-oxido-phosphoryl]oxy-(phosphonomethyl)phosphinate
   48    50     1     0     0
SMALL
USER_CHARGES

@<TRIPOS>ATOM
      1 PG          6.5787   -3.4940   -5.1734 P.3       1 ACP         1.6558
      2 O1G         7.1168   -4.8932   -5.1826 O.2       1 ACP        -0.9020
      3 O2G         5.0557   -3.3327   -5.6876 O.3       1 ACP        -0.8036
      4 O3G         7.3975   -2.4309   -6.0729 O.3       1 ACP        -0.8036
      5 PB          5.9339   -0.9967   -3.2556 P.3       1 ACP         1.4945
      6 O1B         6.7948   -0.0693   -4.0817 O.co2     1 ACP        -0.8481
      7 O2B         5.7605   -0.8229   -1.7646 O.co2     1 ACP        -0.8481
      8 C3B         6.5498   -2.7171   -3.5421 C.3       1 ACP        -0.6636
      9 PA          3.3317   -0.0541   -4.3262 P.3       1 ACP         1.6023
     10 O1A         2.1115   -0.7775   -4.8538 O.co2     1 ACP        -0.8673
     11 O2A         3.9771    1.0549   -5.1285 O.co2     1 ACP        -0.8673
     12 O3A         4.4753   -1.1630   -3.9655 O.3       1 ACP        -0.8150
     13 O5'         3.0199    0.5139   -2.8245 O.3       1 ACP        -0.5522
     14 C5'         2.2816   -0.2918   -1.9206 C.3       1 ACP         0.2181
     15 C4'         2.7248    0.0226   -0.4980 C.3       1 ACP         0.0915
     16 O4'         2.4697    1.4219   -0.2462 O.3       1 ACP        -0.3675
     17 C3'         1.9404   -0.7419    0.5596 C.3       1 ACP         0.0748
     18 O3'         2.7418   -0.8086    1.7389 O.3       1 ACP        -0.5646
     19 C2'         0.7477    0.1630    0.7858 C.3       1 ACP         0.0804
     20 O2'         0.1373   -0.0577    2.0407 O.3       1 ACP        -0.5882
     21 C1'         1.3733    1.5427    0.6747 C.3       1 ACP         0.3809
     22 N9          0.4520    2.5240    0.1767 N.pl3     1 ACP        -0.4412
     23 C8         -1.0660    2.5608    0.3999 C.ar      1 ACP         0.1936
     24 N7         -1.5852    3.6333   -0.2221 N.2       1 ACP        -0.2746
     25 C5         -0.4682    4.1996   -0.7771 C.ar      1 ACP        -0.1386
     26 C6         -0.5216    5.4476   -1.5899 C.ar      1 ACP         0.4778
     27 N6         -1.6813    6.0510   -1.7982 N.pl3     1 ACP        -0.8290
     28 N1          0.6621    5.8575   -2.0523 N.pl3     1 ACP        -0.6985
     29 C2          1.8795    5.1301   -1.7717 C.ar      1 ACP         0.6179
     30 N3          1.9458    4.0434   -1.0670 N.ar      1 ACP        -0.5105
     31 C4          0.7388    3.6199   -0.5917 C.ar      1 ACP         0.2753
     32 HOG2        4.8309   -3.6096   -6.6013 H         1 ACP         0.4487
     33 HOG3        7.4812   -2.5892   -7.0372 H         1 ACP         0.4487
     34 H3B1        5.9539   -3.3567   -2.8814 H         1 ACP         0.1088
     35 H3B2        7.5774   -2.7341   -3.1615 H         1 ACP         0.1088
     36 H5'1        1.2154   -0.0780   -2.0455 H         1 ACP         0.0327
     37 H5'2        2.4646   -1.3453   -2.1548 H         1 ACP         0.0327
     38 H4'         3.8046   -0.1390   -0.4011 H         1 ACP         0.1275
     39 H3'         1.6787   -1.7627    0.2719 H         1 ACP         0.0637
     40 HO3'        3.5553   -1.2733    1.4913 H         1 ACP         0.4127
     41 H2'         0.0002   -0.0084   -0.0014 H         1 ACP         0.0692
     42 HO2'        0.8091    0.1203    2.7213 H         1 ACP         0.4431
     43 H1'         1.7718    1.9211    1.6015 H         1 ACP         0.1199
     44 H8         -1.7235    1.8833    0.9537 H         1 ACP         0.2941
     45 HN61       -2.5296    5.6672   -1.4072 H         1 ACP         0.4754
     46 HN62       -1.7205    6.8969   -2.3483 H         1 ACP         0.4754
     47 H2          2.7750    5.5878   -2.2190 H         1 ACP         0.0886
     48 H48         0.6808    6.7046   -2.6128 H         1 ACP         0.4707
@<TRIPOS>BOND
     1    1    2 2
     2    1    3 1
     3    1    4 1
     4    1    8 1
     5    3   32 1
     6    4   33 1
     7    5    6 2
     8    5    7 1
     9    5    8 1
    10    5   12 1
    11    8   34 1
    12    8   35 1
    13    9   10 2
    14    9   11 1
    15    9   12 1
    16    9   13 1
    17   13   14 1
    18   14   15 1
    19   14   36 1
    20   14   37 1
    21   15   16 1
    22   15   17 1
    23   15   38 1
    24   16   21 1
    25   17   18 1
    26   17   19 1
    27   17   39 1
    28   18   40 1
    29   19   20 1
    30   19   21 1
    31   19   41 1
    32   20   42 1
    33   21   22 1
    34   21   43 1
    35   22   23 ar
    36   22   31 ar
    37   23   24 ar
    38   23   44 1
    39   24   25 ar
    40   25   26 ar
    41   25   31 ar
    42   26   27 1
    43   26   28 ar
    44   27   45 1
    45   27   46 1
    46   28   29 ar
    47   28   48 1
    48   29   30 ar
    49   29   47 1
    50   30   31 ar
@<TRIPOS>SUBSTRUCTURE
     1 ACP         1 GROUP 0 A     ****
@<TRIPOS>MOLECULE
[[5-(6-amino-1,8-dihydropurine-6,8-diylium-7-id-9-yl)-3,4-dihydroxy-tetrahydrofuran-2-yl]methoxy-oxido-phosphoryl]oxy-(phosphonomethyl)phosphinate
   48    50     1     0     0
SMALL
USER_CHARGES

@<TRIPOS>ATOM
      1 PG          0.2594   -5.8260   -1.3818 P.3       1 ACP         1.6558
      2 O1G         1.5738   -5.1728   -1.0770 O.2       1 ACP        -0.9020
      3 O2G        -0.7967   -5.8636   -0.1597 O.3       1 ACP        -0.8036
      4 O3G         0.3454   -7.3677   -1.8565 O.3       1 ACP        -0.8036
      5 PB         -1.2348   -3.2756   -2.6439 P.3       1 ACP         1.4945
      6 O1B        -2.1372   -3.1390   -1.4395 O.co2     1 ACP        -0.8481
      7 O2B        -1.6816   -2.8906   -4.0352 O.co2     1 ACP        -0.8481
      8 C3B        -0.6746   -5.0370   -2.7124 C.3       1 ACP        -0.6636
      9 PA          1.5529   -2.4527   -3.2419 P.3       1 ACP         1.6023
     10 O1A         1.2368   -1.5456   -4.4115 O.co2     1 ACP        -0.8673
     11 O2A         2.1257   -3.8345   -3.4711 O.co2     1 ACP        -0.8673
     12 O3A         0.2119   -2.5960   -2.3207 O.3       1 ACP        -0.8150
     13 O5'         2.5238   -1.6632   -2.1888 O.3       1 ACP        -0.5522
     14 C5'         2.2816   -0.2918   -1.9206 C.3       1 ACP         0.2181
     15 C4'         2.7248    0.0226   -0.4980 C.3       1 ACP         0.0915
     16 O4'         2.4697    1.4219   -0.2462 O.3       1 ACP        -0.3675
     17 C3'         1.9404   -0.7419    0.5596 C.3       1 ACP         0.0748
     18 O3'         2.7418   -0.8086    1.7389 O.3       1 ACP        -0.5646
     19 C2'         0.7477    0.1630    0.7858 C.3       1 ACP         0.0804
     20 O2'         0.1373   -0.0577    2.0407 O.3       1 ACP        -0.5882
     21 C1'         1.3733    1.5427    0.6747 C.3       1 ACP         0.3809
     22 N9          0.4520    2.5240    0.1767 N.pl3     1 ACP        -0.4412
     23 C8         -1.0660    2.5608    0.3999 C.ar      1 ACP         0.1936
     24 N7         -1.5852    3.6333   -0.2221 N.2       1 ACP        -0.2746
     25 C5         -0.4682    4.1996   -0.7771 C.ar      1 ACP        -0.1386
     26 C6         -0.5216    5.4476   -1.5899 C.ar      1 ACP         0.4778
     27 N6         -1.6813    6.0510   -1.7982 N.pl3     1 ACP        -0.8290
     28 N1          0.6621    5.8575   -2.0523 N.pl3     1 ACP        -0.6985
     29 C2          1.8795    5.1301   -1.7717 C.ar      1 ACP         0.6179
     30 N3          1.9458    4.0434   -1.0670 N.ar      1 ACP        -0.5105
     31 C4          0.7388    3.6199   -0.5917 C.ar      1 ACP         0.2753
     32 HOG2       -0.5490   -6.3276    0.6682 H         1 ACP         0.4487
     33 HOG3        0.7438   -8.0295   -1.2521 H         1 ACP         0.4487
     34 H3B1       -0.0801   -5.1212   -3.6291 H         1 ACP         0.1088
     35 H3B2       -1.5814   -5.6335   -2.8639 H         1 ACP         0.1088
     36 H5'1        2.8430    0.3138   -2.6391 H         1 ACP         0.0327
     37 H5'2        1.2126   -0.0907   -2.0421 H         1 ACP         0.0327
     38 H4'         3.8046   -0.1390   -0.4011 H         1 ACP         0.1275
     39 H3'         1.6787   -1.7627    0.2719 H         1 ACP         0.0637
     40 HO3'        2.2231   -1.2979    2.3952 H         1 ACP         0.4127
     41 H2'         0.0002   -0.0084   -0.0014 H         1 ACP         0.0692
     42 HO2'       -0.1554   -0.9852    2.0577 H         1 ACP         0.4431
     43 H1'         1.7718    1.9211    1.6015 H         1 ACP         0.1199
     44 H8         -1.7235    1.8833    0.9537 H         1 ACP         0.2941
     45 HN61       -2.5296    5.6672   -1.4072 H         1 ACP         0.4754
     46 HN62       -1.7205    6.8969   -2.3483 H         1 ACP         0.4754
     47 H2          2.7750    5.5878   -2.2190 H         1 ACP         0.0886
     48 H48         0.6808    6.7046   -2.6128 H         1 ACP         0.4707
@<TRIPOS>BOND
     1    1    2 2
     2    1    3 1
     3    1    4 1
     4    1    8 1
     5    3   32 1
     6    4   33 1
     7    5    6 2
     8    5    7 1
     9    5    8 1
    10    5   12 1
    11    8   34 1
    12    8   35 1
    13    9   10 2
    14    9   11 1
    15    9   12 1
    16    9   13 1
    17   13   14 1
    18   14   15 1
    19   14   36 1
    20   14   37 1
    21   15   16 1
    22   15   17 1
    23   15   38 1
    24   16   21 1
    25   17   18 1
    26   17   19 1
    27   17   39 1
    28   18   40 1
    29   19   20 1
    30   19   21 1
    31   19   41 1
    32   20   42 1
    33   21   22 1
    34   21   43 1
    35   22   23 ar
    36   22   31 ar
    37   23   24 ar
    38   23   44 1
    39   24   25 ar
    40   25   26 ar
    41   25   31 ar
    42   26   27 1
    43   26   28 ar
    44   27   45 1
    45   27   46 1
    46   28   29 ar
    47   28   48 1
    48   29   30 ar
    49   29   47 1
    50   30   31 ar
@<TRIPOS>SUBSTRUCTURE
     1 ACP         1 GROUP 0 A     ****
@<TRIPOS>MOLECULE
[[5-(6-amino-1,8-dihydropurine-6,8-diylium-7-id-9-yl)-3,4-dihydroxy-tetrahydrofuran-2-yl]methoxy-oxido-phosphoryl]oxy-(phosphonomethyl)phosphinate
   48    50     1     0     0
SMALL
USER_CHARGES

@<TRIPOS>ATOM
      1 PG          7.2304    2.8328   -2.7883 P.3       1 ACP         1.6558
      2 O1G         5.7741    3.1301   -2.9834 O.2       1 ACP        -0.9020
      3 O2G         7.8342    3.2381   -1.3456 O.3       1 ACP        -0.8036
      4 O3G         8.2304    3.5517   -3.8337 O.3       1 ACP        -0.8036
      5 PB          6.9488   -0.2290   -1.8522 P.3       1 ACP         1.4945
      6 O1B         7.3293    0.1130   -0.4303 O.co2     1 ACP        -0.8481
      7 O2B         7.2821   -1.5633   -2.4783 O.co2     1 ACP        -0.8481
      8 C3B         7.6617    1.0847   -2.9418 C.3       1 ACP        -0.6636
      9 PA          4.4356   -0.0486   -3.4198 P.3       1 ACP         1.6023
     10 O1A         4.2995   -1.5233   -3.7316 O.co2     1 ACP        -0.8673
     11 O2A         4.9254    0.9201   -4.4742 O.co2     1 ACP        -0.8673
     12 O3A         5.3731    0.1156   -2.0926 O.3       1 ACP        -0.8150
     13 O5'         3.0199    0.5139   -2.8245 O.3       1 ACP        -0.5522
     14 C5'         2.2816   -0.2918   -1.9206 C.3       1 ACP         0.2181
     15 C4'         2.7248    0.0226   -0.4980 C.3       1 ACP         0.0915
     16 O4'         2.4697    1.4219   -0.2462 O.3       1 ACP        -0.3675
     17 C3'         1.9404   -0.7419    0.5596 C.3       1 ACP         0.0748
     18 O3'         2.7418   -0.8086    1.7389 O.3       1 ACP        -0.5646
     19 C2'         0.7477    0.1630    0.7858 C.3       1 ACP         0.0804
     20 O2'         0.1373   -0.0577    2.0407 O.3       1 ACP        -0.5882
     21 C1'         1.3733    1.5427    0.6747 C.3       1 ACP         0.3809
     22 N9          0.4520    2.5240    0.1767 N.pl3     1 ACP        -0.4412
     23 C8          0.1798    2.8712   -1.2933 C.ar      1 ACP         0.1936
     24 N7         -0.7494    3.8400   -1.3610 N.2       1 ACP        -0.2746
     25 C5         -1.0173    4.0603   -0.0358 C.ar      1 ACP        -0.1386
     26 C6         -2.0105    5.0717    0.4241 C.ar      1 ACP         0.4778
     27 N6         -2.6723    5.7982   -0.4628 N.pl3     1 ACP        -0.8290
     28 N1         -2.1445    5.1522    1.7502 N.pl3     1 ACP        -0.6985
     29 C2         -1.3755    4.3143    2.6426 C.ar      1 ACP         0.6179
     30 N3         -0.5075    3.4292    2.2616 N.ar      1 ACP        -0.5105
     31 C4         -0.3667    3.3425    0.9070 C.ar      1 ACP         0.2753
     32 HOG2        7.7990    4.1765   -1.0625 H         1 ACP         0.4487
     33 HOG3        8.2472    4.5314   -3.8782 H         1 ACP         0.4487
     34 H3B1        7.4288    0.7751   -3.9668 H         1 ACP         0.1088
     35 H3B2        8.7490    1.0122   -2.8254 H         1 ACP         0.1088
     36 H5'1        1.2154   -0.0780   -2.0455 H         1 ACP         0.0327
     37 H5'2        2.4646   -1.3453   -2.1548 H         1 ACP         0.0327
     38 H4'         3.8046   -0.1390   -0.4011 H         1 ACP         0.1275
     39 H3'         1.6787   -1.7627    0.2719 H         1 ACP         0.0637
     40 HO3'        2.2231   -1.2979    2.3952 H         1 ACP         0.4127
     41 H2'         0.0002   -0.0084   -0.0014 H         1 ACP         0.0692
     42 HO2'       -0.1554   -0.9852    2.0577 H         1 ACP         0.4431
     43 H1'         1.7718    1.9211    1.6015 H         1 ACP         0.1199
     44 H8          0.6089    2.4651   -2.2147 H         1 ACP         0.2941
     45 HN61       -2.5055    5.6680   -1.4503 H         1 ACP         0.4754
     46 HN62       -3.3462    6.4841   -0.1542 H         1 ACP         0.4754
     47 H2         -1.5932    4.4937    3.7066 H         1 ACP         0.0886
     48 H48        -2.8098    5.8270    2.1160 H         1 ACP         0.4707
@<TRIPOS>BOND
     1    1    2 2
     2    1    3 1
     3    1    4 1
     4    1    8 1
     5    3   32 1
     6    4   33 1
     7    5    6 2
     8    5    7 1
     9    5    8 1
    10    5   12 1
    11    8   34 1
    12    8   35 1
    13    9   10 2
    14    9   11 1
    15    9   12 1
    16    9   13 1
    17   13   14 1
    18   14   15 1
    19   14   36 1
    20   14   37 1
    21   15   16 1
    22   15   17 1
    23   15   38 1
    24   16   21 1
    25   17   18 1
    26   17   19 1
    27   17   39 1
    28   18   40 1
    29   19   20 1
    30   19   21 1
    31   19   41 1
    32   20   42 1
    33   21   22 1
    34   21   43 1
    35   22   23 ar
    36   22   31 ar
    37   23   24 ar
    38   23   44 1
    39   24   25 ar
    40   25   26 ar
    41   25   31 ar
    42   26   27 1
    43   26   28 ar
    44   27   45 1
    45   27   46 1
    46   28   29 ar
    47   28   48 1
    48   29   30 ar
    49   29   47 1
    50   30   31 ar
@<TRIPOS>SUBSTRUCTURE
     1 ACP         1 GROUP 0 A     ****
@<TRIPOS>MOLECULE
[[5-(6-amino-1,8-dihydropurine-6,8-diylium-7-id-9-yl)-3,4-dihydroxy-tetrahydrofuran-2-yl]methoxy-oxido-phosphoryl]oxy-(phosphonomethyl)phosphinate
   48    50     1     0     0
SMALL
USER_CHARGES

@<TRIPOS>ATOM
      1 PG         -4.0589   -9.2159    2.7110 P.3       1 ACP         1.6558
      2 O1G        -3.2973   -8.9887    3.9821 O.2       1 ACP        -0.9020
      3 O2G        -5.6533   -8.9728    2.8045 O.3       1 ACP        -0.8036
      4 O3G        -3.9374  -10.7007    2.0864 O.3       1 ACP        -0.8036
      5 PB         -3.6534   -6.3047    1.4108 P.3       1 ACP         1.4945
      6 O1B        -5.1020   -5.9401    1.6394 O.co2     1 ACP        -0.8481
      7 O2B        -2.8606   -5.7673    0.2419 O.co2     1 ACP        -0.8481
      8 C3B        -3.5569   -8.1504    1.3405 C.3       1 ACP        -0.6636
      9 PA         -1.2319   -6.3265    3.1261 P.3       1 ACP         1.6023
     10 O1A        -0.8660   -7.7443    2.7434 O.co2     1 ACP        -0.8673
     11 O2A        -0.9557   -5.8090    4.5210 O.co2     1 ACP        -0.8673
     12 O3A        -2.8134   -6.0919    2.7923 O.3       1 ACP        -0.8150
     13 O5'        -0.5696   -5.2856    2.0523 O.3       1 ACP        -0.5522
     14 C5'        -0.7840   -3.8935    2.2172 C.3       1 ACP         0.2181
     15 C4'        -0.0724   -3.1466    1.1027 C.3       1 ACP         0.0915
     16 O4'        -0.8674   -3.1929   -0.0945 O.3       1 ACP        -0.3675
     17 C3'         0.1338   -1.6715    1.4027 C.3       1 ACP         0.0748
     18 O3'         1.2893   -1.4445    2.1808 O.3       1 ACP        -0.5646
     19 C2'         0.2158   -1.0724    0.0128 C.3       1 ACP         0.0804
     20 O2'         1.5141   -1.2448   -0.5513 O.3       1 ACP        -0.5882
     21 C1'        -0.7897   -1.9176   -0.7583 C.3       1 ACP         0.3809
     22 N9         -2.1040   -1.3333   -0.7704 N.pl3     1 ACP        -0.4412
     23 C8         -3.2124   -1.5345    0.2719 C.ar      1 ACP         0.1936
     24 N7         -4.2964   -0.8234   -0.0828 N.2       1 ACP        -0.2746
     25 C5         -3.8754   -0.2386   -1.2478 C.ar      1 ACP        -0.1386
     26 C6         -4.7432    0.6719   -2.0470 C.ar      1 ACP         0.4778
     27 N6         -5.9725    0.9415   -1.6366 N.pl3     1 ACP        -0.8290
     28 N1         -4.1703    1.1517   -3.1536 N.pl3     1 ACP        -0.6985
     29 C2         -2.8174    0.7994   -3.5215 C.ar      1 ACP         0.6179
     30 N3         -2.0475    0.0097   -2.8393 N.ar      1 ACP        -0.5105
     31 C4         -2.6278   -0.4836   -1.7071 C.ar      1 ACP         0.2753
     32 HOG2       -6.1800   -9.5114    3.4326 H         1 ACP         0.4487
     33 HOG3       -4.2379  -11.4668    2.6201 H         1 ACP         0.4487
     34 H3B1       -2.5115   -8.3817    1.1071 H         1 ACP         0.1088
     35 H3B2       -4.1520   -8.4480    0.4696 H         1 ACP         0.1088
     36 H5'1       -1.8599   -3.6947    2.1849 H         1 ACP         0.0327
     37 H5'2       -0.3934   -3.5882    3.1930 H         1 ACP         0.0327
     38 H4'         0.8883   -3.6447    0.8783 H         1 ACP         0.1275
     39 H3'        -0.7368   -1.2359    1.9871 H         1 ACP         0.0637
     40 HO3'        1.3407   -0.4871    2.3218 H         1 ACP         0.4127
     41 H2'        -0.0343   -0.0280    0.0196 H         1 ACP         0.0692
     42 HO2'        2.1443   -0.7955    0.0378 H         1 ACP         0.4431
     43 H1'        -0.5175   -2.1046   -1.7826 H         1 ACP         0.1199
     44 H8         -3.2310   -2.1319    1.1889 H         1 ACP         0.2941
     45 HN61       -6.3230    0.5316   -0.7829 H         1 ACP         0.4754
     46 HN62       -6.5628    1.5584   -2.1760 H         1 ACP         0.4754
     47 H2         -2.4822    1.2710   -4.4579 H         1 ACP         0.0886
     48 H48        -4.7200    1.7780   -3.7346 H         1 ACP         0.4707
@<TRIPOS>BOND
     1    1    2 2
     2    1    3 1
     3    1    4 1
     4    1    8 1
     5    3   32 1
     6    4   33 1
     7    5    6 2
     8    5    7 1
     9    5    8 1
    10    5   12 1
    11    8   34 1
    12    8   35 1
    13    9   10 2
    14    9   11 1
    15    9   12 1
    16    9   13 1
    17   13   14 1
    18   14   15 1
    19   14   36 1
    20   14   37 1
    21   15   16 1
    22   15   17 1
    23   15   38 1
    24   16   21 1
    25   17   18 1
    26   17   19 1
    27   17   39 1
    28   18   40 1
    29   19   20 1
    30   19   21 1
    31   19   41 1
    32   20   42 1
    33   21   22 1
    34   21   43 1
    35   22   23 ar
    36   22   31 ar
    37   23   24 ar
    38   23   44 1
    39   24   25 ar
    40   25   26 ar
    41   25   31 ar
    42   26   27 1
    43   26   28 ar
    44   27   45 1
    45   27   46 1
    46   28   29 ar
    47   28   48 1
    48   29   30 ar
    49   29   47 1
    50   30   31 ar
@<TRIPOS>SUBSTRUCTURE
     1 ACP         1 GROUP 0 A     ****
@<TRIPOS>MOLECULE
[[5-(6-amino-1,8-dihydropurine-6,8-diylium-7-id-9-yl)-3,4-dihydroxy-tetrahydrofuran-2-yl]methoxy-oxido-phosphoryl]oxy-(phosphonomethyl)phosphinate
   48    50     1     0     0
SMALL
USER_CHARGES

@<TRIPOS>ATOM
      1 PG          4.0082    1.6719   -5.9585 P.3       1 ACP         1.6558
      2 O1G         5.0659    2.7247   -6.1004 O.2       1 ACP        -0.9020
      3 O2G         2.7339    1.8318   -6.9387 O.3       1 ACP        -0.8036
      4 O3G         3.3447    1.5498   -4.4906 O.3       1 ACP        -0.8036
      5 PB          3.4755   -1.4893   -6.1885 P.3       1 ACP         1.4945
      6 O1B         4.3129   -2.6986   -6.5349 O.co2     1 ACP        -0.8481
      7 O2B         2.2001   -1.1526   -6.9258 O.co2     1 ACP        -0.8481
      8 C3B         4.5799   -0.0094   -6.2930 C.3       1 ACP        -0.6636
      9 PA          2.1358   -2.2685   -3.6578 P.3       1 ACP         1.6023
     10 O1A         2.4845   -3.7405   -3.7033 O.co2     1 ACP        -0.8673
     11 O2A         0.7432   -1.7950   -4.0135 O.co2     1 ACP        -0.8673
     12 O3A         3.2094   -1.4534   -4.5800 O.3       1 ACP        -0.8150
     13 O5'         2.5238   -1.6632   -2.1888 O.3       1 ACP        -0.5522
     14 C5'         2.2816   -0.2918   -1.9206 C.3       1 ACP         0.2181
     15 C4'         2.7248    0.0226   -0.4980 C.3       1 ACP         0.0915
     16 O4'         2.4697    1.4219   -0.2462 O.3       1 ACP        -0.3675
     17 C3'         1.9404   -0.7419    0.5596 C.3       1 ACP         0.0748
     18 O3'         2.7418   -0.8086    1.7389 O.3       1 ACP        -0.5646
     19 C2'         0.7477    0.1630    0.7858 C.3       1 ACP         0.0804
     20 O2'         0.1373   -0.0577    2.0407 O.3       1 ACP        -0.5882
     21 C1'         1.3733    1.5427    0.6747 C.3       1 ACP         0.3809
     22 N9          0.4520    2.5240    0.1767 N.pl3     1 ACP        -0.4412
     23 C8         -1.0660    2.5608    0.3999 C.ar      1 ACP         0.1936
     24 N7         -1.5852    3.6333   -0.2221 N.2       1 ACP        -0.2746
     25 C5         -0.4682    4.1996   -0.7771 C.ar      1 ACP        -0.1386
     26 C6         -0.5216    5.4476   -1.5899 C.ar      1 ACP         0.4778
     27 N6         -1.6813    6.0510   -1.7982 N.pl3     1 ACP        -0.8290
     28 N1          0.6621    5.8575   -2.0523 N.pl3     1 ACP        -0.6985
     29 C2          1.8795    5.1301   -1.7717 C.ar      1 ACP         0.6179
     30 N3          1.9458    4.0434   -1.0670 N.ar      1 ACP        -0.5105
     31 C4          0.7388    3.6199   -0.5917 C.ar      1 ACP         0.2753
     32 HOG2        2.1906    2.6465   -6.8825 H         1 ACP         0.4487
     33 HOG3        2.8820    2.3273   -4.1121 H         1 ACP         0.4487
     34 H3B1        4.9941   -0.0224   -7.3075 H         1 ACP         0.1088
     35 H3B2        5.4108   -0.2072   -5.6063 H         1 ACP         0.1088
     36 H5'1        2.8430    0.3138   -2.6391 H         1 ACP         0.0327
     37 H5'2        1.2126   -0.0907   -2.0421 H         1 ACP         0.0327
     38 H4'         3.8046   -0.1390   -0.4011 H         1 ACP         0.1275
     39 H3'         1.6787   -1.7627    0.2719 H         1 ACP         0.0637
     40 HO3'        2.2231   -1.2979    2.3952 H         1 ACP         0.4127
     41 H2'         0.0002   -0.0084   -0.0014 H         1 ACP         0.0692
     42 HO2'       -0.1554   -0.9852    2.0577 H         1 ACP         0.4431
     43 H1'         1.7718    1.9211    1.6015 H         1 ACP         0.1199
     44 H8         -1.7235    1.8833    0.9537 H         1 ACP         0.2941
     45 HN61       -2.5296    5.6672   -1.4072 H         1 ACP         0.4754
     46 HN62       -1.7205    6.8969   -2.3483 H         1 ACP         0.4754
     47 H2          2.7750    5.5878   -2.2190 H         1 ACP         0.0886
     48 H48         0.6808    6.7046   -2.6128 H         1 ACP         0.4707
@<TRIPOS>BOND
     1    1    2 2
     2    1    3 1
     3    1    4 1
     4    1    8 1
     5    3   32 1
     6    4   33 1
     7    5    6 2
     8    5    7 1
     9    5    8 1
    10    5   12 1
    11    8   34 1
    12    8   35 1
    13    9   10 2
    14    9   11 1
    15    9   12 1
    16    9   13 1
    17   13   14 1
    18   14   15 1
    19   14   36 1
    20   14   37 1
    21   15   16 1
    22   15   17 1
    23   15   38 1
    24   16   21 1
    25   17   18 1
    26   17   19 1
    27   17   39 1
    28   18   40 1
    29   19   20 1
    30   19   21 1
    31   19   41 1
    32   20   42 1
    33   21   22 1
    34   21   43 1
    35   22   23 ar
    36   22   31 ar
    37   23   24 ar
    38   23   44 1
    39   24   25 ar
    40   25   26 ar
    41   25   31 ar
    42   26   27 1
    43   26   28 ar
    44   27   45 1
    45   27   46 1
    46   28   29 ar
    47   28   48 1
    48   29   30 ar
    49   29   47 1
    50   30   31 ar
@<TRIPOS>SUBSTRUCTURE
     1 ACP         1 GROUP 0 A     ****
@<TRIPOS>MOLECULE
[[5-(6-amino-1,8-dihydropurine-6,8-diylium-7-id-9-yl)-3,4-dihydroxy-tetrahydrofuran-2-yl]methoxy-oxido-phosphoryl]oxy-(phosphonomethyl)phosphinate
   48    50     1     0     0
SMALL
USER_CHARGES

@<TRIPOS>ATOM
      1 PG          2.3642   -4.5338   -3.6329 P.3       1 ACP         1.6558
      2 O1G         2.8631   -5.7929   -4.2757 O.2       1 ACP        -0.9020
      3 O2G         2.6435   -3.1745   -4.4601 O.3       1 ACP        -0.8036
      4 O3G         2.9678   -4.2174   -2.1682 O.3       1 ACP        -0.8036
      5 PB         -0.2903   -3.0564   -2.5836 P.3       1 ACP         1.4945
      6 O1B         0.2904   -2.8759   -1.2002 O.co2     1 ACP        -0.8481
      7 O2B        -1.7711   -3.2447   -2.8191 O.co2     1 ACP        -0.8481
      8 C3B         0.5783   -4.4931   -3.3597 C.3       1 ACP        -0.6636
      9 PA          0.1610   -0.2655   -3.4854 P.3       1 ACP         1.6023
     10 O1A        -1.3031    0.1010   -3.3725 O.co2     1 ACP        -0.8673
     11 O2A         1.0247    0.3365   -4.5724 O.co2     1 ACP        -0.8673
     12 O3A         0.2823   -1.8920   -3.5712 O.3       1 ACP        -0.8150
     13 O5'         0.8969   -0.0131   -2.0467 O.3       1 ACP        -0.5522
     14 C5'         2.2816   -0.2918   -1.9206 C.3       1 ACP         0.2181
     15 C4'         2.7248    0.0226   -0.4980 C.3       1 ACP         0.0915
     16 O4'         2.4697    1.4219   -0.2462 O.3       1 ACP        -0.3675
     17 C3'         1.9404   -0.7419    0.5596 C.3       1 ACP         0.0748
     18 O3'         2.7418   -0.8086    1.7389 O.3       1 ACP        -0.5646
     19 C2'         0.7477    0.1630    0.7858 C.3       1 ACP         0.0804
     20 O2'         0.1373   -0.0577    2.0407 O.3       1 ACP        -0.5882
     21 C1'         1.3733    1.5427    0.6747 C.3       1 ACP         0.3809
     22 N9          0.4520    2.5240    0.1767 N.pl3     1 ACP        -0.4412
     23 C8          0.1798    2.8712   -1.2933 C.ar      1 ACP         0.1936
     24 N7         -0.7494    3.8400   -1.3610 N.2       1 ACP        -0.2746
     25 C5         -1.0173    4.0603   -0.0358 C.ar      1 ACP        -0.1386
     26 C6         -2.0105    5.0717    0.4241 C.ar      1 ACP         0.4778
     27 N6         -2.6723    5.7982   -0.4628 N.pl3     1 ACP        -0.8290
     28 N1         -2.1445    5.1522    1.7502 N.pl3     1 ACP        -0.6985
     29 C2         -1.3755    4.3143    2.6426 C.ar      1 ACP         0.6179
     30 N3         -0.5075    3.4292    2.2616 N.ar      1 ACP        -0.5105
     31 C4         -0.3667    3.3425    0.9070 C.ar      1 ACP         0.2753
     32 HOG2        3.5698   -2.9229   -4.6617 H         1 ACP         0.4487
     33 HOG3        3.9368   -4.1034   -2.0681 H         1 ACP         0.4487
     34 H3B1        0.0916   -4.6418   -4.3302 H         1 ACP         0.1088
     35 H3B2        0.3295   -5.3628   -2.7410 H         1 ACP         0.1088
     36 H5'1        2.4523   -1.3484   -2.1500 H         1 ACP         0.0327
     37 H5'2        2.8334    0.3233   -2.6385 H         1 ACP         0.0327
     38 H4'         3.8046   -0.1390   -0.4011 H         1 ACP         0.1275
     39 H3'         1.6787   -1.7627    0.2719 H         1 ACP         0.0637
     40 HO3'        2.2231   -1.2979    2.3952 H         1 ACP         0.4127
     41 H2'         0.0002   -0.0084   -0.0014 H         1 ACP         0.0692
     42 HO2'       -0.1554   -0.9852    2.0577 H         1 ACP         0.4431
     43 H1'         1.7718    1.9211    1.6015 H         1 ACP         0.1199
     44 H8          0.6089    2.4651   -2.2147 H         1 ACP         0.2941
     45 HN61       -2.5055    5.6680   -1.4503 H         1 ACP         0.4754
     46 HN62       -3.3462    6.4841   -0.1542 H         1 ACP         0.4754
     47 H2         -1.5932    4.4937    3.7066 H         1 ACP         0.0886
     48 H48        -2.8098    5.8270    2.1160 H         1 ACP         0.4707
@<TRIPOS>BOND
     1    1    2 2
     2    1    3 1
     3    1    4 1
     4    1    8 1
     5    3   32 1
     6    4   33 1
     7    5    6 2
     8    5    7 1
     9    5    8 1
    10    5   12 1
    11    8   34 1
    12    8   35 1
    13    9   10 2
    14    9   11 1
    15    9   12 1
    16    9   13 1
    17   13   14 1
    18   14   15 1
    19   14   36 1
    20   14   37 1
    21   15   16 1
    22   15   17 1
    23   15   38 1
    24   16   21 1
    25   17   18 1
    26   17   19 1
    27   17   39 1
    28   18   40 1
    29   19   20 1
    30   19   21 1
    31   19   41 1
    32   20   42 1
    33   21   22 1
    34   21   43 1
    35   22   23 ar
    36   22   31 ar
    37   23   24 ar
    38   23   44 1
    39   24   25 ar
    40   25   26 ar
    41   25   31 ar
    42   26   27 1
    43   26   28 ar
    44   27   45 1
    45   27   46 1
    46   28   29 ar
    47   28   48 1
    48   29   30 ar
    49   29   47 1
    50   30   31 ar
@<TRIPOS>SUBSTRUCTURE
     1 ACP         1 GROUP 0 A     ****
@<TRIPOS>MOLECULE
[[5-(6-amino-1,8-dihydropurine-6,8-diylium-7-id-9-yl)-3,4-dihydroxy-tetrahydrofuran-2-yl]methoxy-oxido-phosphoryl]oxy-(phosphonomethyl)phosphinate
   48    50     1     0     0
SMALL
USER_CHARGES

@<TRIPOS>ATOM
      1 PG          7.3304    0.3231   -4.9436 P.3       1 ACP         1.6558
      2 O1G         6.5493    1.2315   -4.0425 O.2       1 ACP        -0.9020
      3 O2G         8.4682   -0.5645   -4.2172 O.3       1 ACP        -0.8036
      4 O3G         8.1281    1.0550   -6.1427 O.3       1 ACP        -0.8036
      5 PB          5.3139   -2.1795   -4.9261 P.3       1 ACP         1.4945
      6 O1B         6.2587   -3.0056   -4.0844 O.co2     1 ACP        -0.8481
      7 O2B         4.3877   -2.8011   -5.9456 O.co2     1 ACP        -0.8481
      8 C3B         6.3310   -0.9104   -5.8068 C.3       1 ACP        -0.6636
      9 PA          3.3317   -0.0541   -4.3262 P.3       1 ACP         1.6023
     10 O1A         2.1115   -0.7775   -4.8538 O.co2     1 ACP        -0.8673
     11 O2A         3.9771    1.0549   -5.1285 O.co2     1 ACP        -0.8673
     12 O3A         4.4753   -1.1630   -3.9655 O.3       1 ACP        -0.8150
     13 O5'         3.0199    0.5139   -2.8245 O.3       1 ACP        -0.5522
     14 C5'         2.2816   -0.2918   -1.9206 C.3       1 ACP         0.2181
     15 C4'         2.7248    0.0226   -0.4980 C.3       1 ACP         0.0915
     16 O4'         2.4697    1.4219   -0.2462 O.3       1 ACP        -0.3675
     17 C3'         1.9404   -0.7419    0.5596 C.3       1 ACP         0.0748
     18 O3'         2.7418   -0.8086    1.7389 O.3       1 ACP        -0.5646
     19 C2'         0.7477    0.1630    0.7858 C.3       1 ACP         0.0804
     20 O2'         0.1373   -0.0577    2.0407 O.3       1 ACP        -0.5882
     21 C1'         1.3733    1.5427    0.6747 C.3       1 ACP         0.3809
     22 N9          0.4520    2.5240    0.1767 N.pl3     1 ACP        -0.4412
     23 C8         -1.0660    2.5608    0.3999 C.ar      1 ACP         0.1936
     24 N7         -1.5852    3.6333   -0.2221 N.2       1 ACP        -0.2746
     25 C5         -0.4682    4.1996   -0.7771 C.ar      1 ACP        -0.1386
     26 C6         -0.5216    5.4476   -1.5899 C.ar      1 ACP         0.4778
     27 N6         -1.6813    6.0510   -1.7982 N.pl3     1 ACP        -0.8290
     28 N1          0.6621    5.8575   -2.0523 N.pl3     1 ACP        -0.6985
     29 C2          1.8795    5.1301   -1.7717 C.ar      1 ACP         0.6179
     30 N3          1.9458    4.0434   -1.0670 N.ar      1 ACP        -0.5105
     31 C4          0.7388    3.6199   -0.5917 C.ar      1 ACP         0.2753
     32 HOG2        9.1949   -0.1085   -3.7418 H         1 ACP         0.4487
     33 HOG3        8.8099    1.7243   -5.9207 H         1 ACP         0.4487
     34 H3B1        5.6320   -0.3733   -6.4580 H         1 ACP         0.1088
     35 H3B2        7.0092   -1.4713   -6.4600 H         1 ACP         0.1088
     36 H5'1        1.2154   -0.0780   -2.0455 H         1 ACP         0.0327
     37 H5'2        2.4646   -1.3453   -2.1548 H         1 ACP         0.0327
     38 H4'         3.8046   -0.1390   -0.4011 H         1 ACP         0.1275
     39 H3'         1.6787   -1.7627    0.2719 H         1 ACP         0.0637
     40 HO3'        2.2231   -1.2979    2.3952 H         1 ACP         0.4127
     41 H2'         0.0002   -0.0084   -0.0014 H         1 ACP         0.0692
     42 HO2'       -0.1554   -0.9852    2.0577 H         1 ACP         0.4431
     43 H1'         1.7718    1.9211    1.6015 H         1 ACP         0.1199
     44 H8         -1.7235    1.8833    0.9537 H         1 ACP         0.2941
     45 HN61       -2.5296    5.6672   -1.4072 H         1 ACP         0.4754
     46 HN62       -1.7205    6.8969   -2.3483 H         1 ACP         0.4754
     47 H2          2.7750    5.5878   -2.2190 H         1 ACP         0.0886
     48 H48         0.6808    6.7046   -2.6128 H         1 ACP         0.4707
@<TRIPOS>BOND
     1    1    2 2
     2    1    3 1
     3    1    4 1
     4    1    8 1
     5    3   32 1
     6    4   33 1
     7    5    6 2
     8    5    7 1
     9    5    8 1
    10    5   12 1
    11    8   34 1
    12    8   35 1
    13    9   10 2
    14    9   11 1
    15    9   12 1
    16    9   13 1
    17   13   14 1
    18   14   15 1
    19   14   36 1
    20   14   37 1
    21   15   16 1
    22   15   17 1
    23   15   38 1
    24   16   21 1
    25   17   18 1
    26   17   19 1
    27   17   39 1
    28   18   40 1
    29   19   20 1
    30   19   21 1
    31   19   41 1
    32   20   42 1
    33   21   22 1
    34   21   43 1
    35   22   23 ar
    36   22   31 ar
    37   23   24 ar
    38   23   44 1
    39   24   25 ar
    40   25   26 ar
    41   25   31 ar
    42   26   27 1
    43   26   28 ar
    44   27   45 1
    45   27   46 1
    46   28   29 ar
    47   28   48 1
    48   29   30 ar
    49   29   47 1
    50   30   31 ar
@<TRIPOS>SUBSTRUCTURE
     1 ACP         1 GROUP 0 A     ****
@<TRIPOS>MOLECULE
[[5-(6-amino-1,8-dihydropurine-6,8-diylium-7-id-9-yl)-3,4-dihydroxy-tetrahydrofuran-2-yl]methoxy-oxido-phosphoryl]oxy-(phosphonomethyl)phosphinate
   48    50     1     0     0
SMALL
USER_CHARGES

@<TRIPOS>ATOM
      1 PG         -1.4861   -0.6550   -4.1516 P.3       1 ACP         1.6558
      2 O1G        -2.4936   -1.7617   -4.2384 O.2       1 ACP        -0.9020
      3 O2G        -0.2778   -0.8968   -3.1067 O.3       1 ACP        -0.8036
      4 O3G        -2.0756    0.7867   -3.7229 O.3       1 ACP        -0.8036
      5 PB          0.6609    1.0118   -5.8669 P.3       1 ACP         1.4945
      6 O1B         0.0066    2.3267   -5.5111 O.co2     1 ACP        -0.8481
      7 O2B         1.3645    0.7912   -7.1859 O.co2     1 ACP        -0.8481
      8 C3B        -0.6283   -0.3042   -5.7029 C.3       1 ACP        -0.6636
      9 PA          2.9201    1.2533   -3.9581 P.3       1 ACP         1.6023
     10 O1A         2.4599    2.5248   -3.2784 O.co2     1 ACP        -0.8673
     11 O2A         4.0401    1.2850   -4.9752 O.co2     1 ACP        -0.8673
     12 O3A         1.6231    0.5326   -4.6407 O.3       1 ACP        -0.8150
     13 O5'         3.2885    0.1337   -2.8242 O.3       1 ACP        -0.5522
     14 C5'         2.2816   -0.2918   -1.9206 C.3       1 ACP         0.2181
     15 C4'         2.7248    0.0226   -0.4980 C.3       1 ACP         0.0915
     16 O4'         2.4697    1.4219   -0.2462 O.3       1 ACP        -0.3675
     17 C3'         1.9404   -0.7419    0.5596 C.3       1 ACP         0.0748
     18 O3'         2.7418   -0.8086    1.7389 O.3       1 ACP        -0.5646
     19 C2'         0.7477    0.1630    0.7858 C.3       1 ACP         0.0804
     20 O2'         0.1373   -0.0577    2.0407 O.3       1 ACP        -0.5882
     21 C1'         1.3733    1.5427    0.6747 C.3       1 ACP         0.3809
     22 N9          0.4520    2.5240    0.1767 N.pl3     1 ACP        -0.4412
     23 C8         -0.3054    2.4845   -1.1576 C.ar      1 ACP         0.1936
     24 N7         -1.0755    3.5806   -1.2691 N.2       1 ACP        -0.2746
     25 C5         -0.8043    4.2306   -0.0942 C.ar      1 ACP        -0.1386
     26 C6         -1.4324    5.5335    0.2646 C.ar      1 ACP         0.4778
     27 N6         -2.2885    6.1054   -0.5675 N.pl3     1 ACP        -0.8290
     28 N1         -1.0537    6.0229    1.4478 N.pl3     1 ACP        -0.6985
     29 C2         -0.1096    5.3242    2.2908 C.ar      1 ACP         0.6179
     30 N3          0.4468    4.1904    1.9960 N.ar      1 ACP        -0.5105
     31 C4          0.0631    3.6855    0.7877 C.ar      1 ACP         0.2753
     32 HOG2       -0.4892   -1.0272   -2.1578 H         1 ACP         0.4487
     33 HOG3       -2.5239    0.8778   -2.8553 H         1 ACP         0.4487
     34 H3B1       -0.1455   -1.2316   -6.0312 H         1 ACP         0.1088
     35 H3B2       -1.3971   -0.0640   -6.4462 H         1 ACP         0.1088
     36 H5'1        1.3501    0.2325   -2.1561 H         1 ACP         0.0327
     37 H5'2        2.1268   -1.3683   -2.0445 H         1 ACP         0.0327
     38 H4'         3.8046   -0.1390   -0.4011 H         1 ACP         0.1275
     39 H3'         1.6787   -1.7627    0.2719 H         1 ACP         0.0637
     40 HO3'        3.5553   -1.2733    1.4913 H         1 ACP         0.4127
     41 H2'         0.0002   -0.0084   -0.0014 H         1 ACP         0.0692
     42 HO2'       -0.1554   -0.9852    2.0577 H         1 ACP         0.4431
     43 H1'         1.7718    1.9211    1.6015 H         1 ACP         0.1199
     44 H8         -0.2991    1.7413   -1.9611 H         1 ACP         0.2941
     45 HN61       -2.5167    5.6603   -1.4447 H         1 ACP         0.4754
     46 HN62       -2.7159    6.9882   -0.3270 H         1 ACP         0.4754
     47 H2          0.1059    5.8491    3.2340 H         1 ACP         0.0886
     48 H48        -1.4532    6.9099    1.7401 H         1 ACP         0.4707
@<TRIPOS>BOND
     1    1    2 2
     2    1    3 1
     3    1    4 1
     4    1    8 1
     5    3   32 1
     6    4   33 1
     7    5    6 2
     8    5    7 1
     9    5    8 1
    10    5   12 1
    11    8   34 1
    12    8   35 1
    13    9   10 2
    14    9   11 1
    15    9   12 1
    16    9   13 1
    17   13   14 1
    18   14   15 1
    19   14   36 1
    20   14   37 1
    21   15   16 1
    22   15   17 1
    23   15   38 1
    24   16   21 1
    25   17   18 1
    26   17   19 1
    27   17   39 1
    28   18   40 1
    29   19   20 1
    30   19   21 1
    31   19   41 1
    32   20   42 1
    33   21   22 1
    34   21   43 1
    35   22   23 ar
    36   22   31 ar
    37   23   24 ar
    38   23   44 1
    39   24   25 ar
    40   25   26 ar
    41   25   31 ar
    42   26   27 1
    43   26   28 ar
    44   27   45 1
    45   27   46 1
    46   28   29 ar
    47   28   48 1
    48   29   30 ar
    49   29   47 1
    50   30   31 ar
@<TRIPOS>SUBSTRUCTURE
     1 ACP         1 GROUP 0 A     ****
@<TRIPOS>MOLECULE
[[5-(6-amino-1,8-dihydropurine-6,8-diylium-7-id-9-yl)-3,4-dihydroxy-tetrahydrofuran-2-yl]methoxy-oxido-phosphoryl]oxy-(phosphonomethyl)phosphinate
   48    50     1     0     0
SMALL
USER_CHARGES

@<TRIPOS>ATOM
      1 PG         -3.3514   -4.0368    5.8230 P.3       1 ACP         1.6558
      2 O1G        -2.1208   -3.6301    5.0696 O.2       1 ACP        -0.9020
      3 O2G        -4.6243   -3.0563    5.6541 O.3       1 ACP        -0.8036
      4 O3G        -3.1752   -4.1574    7.4243 O.3       1 ACP        -0.8036
      5 PB         -4.5722   -6.0589    3.6435 P.3       1 ACP         1.4945
      6 O1B        -5.6909   -5.1023    3.3015 O.co2     1 ACP        -0.8481
      7 O2B        -4.7409   -7.5586    3.5669 O.co2     1 ACP        -0.8481
      8 C3B        -4.0097   -5.6542    5.3583 C.3       1 ACP        -0.6636
      9 PA         -1.7213   -6.2745    2.8484 P.3       1 ACP         1.6023
     10 O1A        -1.8046   -7.6445    2.2109 O.co2     1 ACP        -0.8673
     11 O2A        -1.1153   -6.1001    4.2240 O.co2     1 ACP        -0.8673
     12 O3A        -3.2154   -5.6149    2.8552 O.3       1 ACP        -0.8150
     13 O5'        -0.9728   -5.2428    1.8236 O.3       1 ACP        -0.5522
     14 C5'        -0.7840   -3.8935    2.2172 C.3       1 ACP         0.2181
     15 C4'        -0.0724   -3.1466    1.1027 C.3       1 ACP         0.0915
     16 O4'        -0.8674   -3.1929   -0.0945 O.3       1 ACP        -0.3675
     17 C3'         0.1338   -1.6715    1.4027 C.3       1 ACP         0.0748
     18 O3'         1.2893   -1.4445    2.1808 O.3       1 ACP        -0.5646
     19 C2'         0.2158   -1.0724    0.0128 C.3       1 ACP         0.0804
     20 O2'         1.5141   -1.2448   -0.5513 O.3       1 ACP        -0.5882
     21 C1'        -0.7897   -1.9176   -0.7583 C.3       1 ACP         0.3809
     22 N9         -2.1040   -1.3333   -0.7704 N.pl3     1 ACP        -0.4412
     23 C8         -3.2124   -1.5345    0.2719 C.ar      1 ACP         0.1936
     24 N7         -4.2964   -0.8234   -0.0828 N.2       1 ACP        -0.2746
     25 C5         -3.8754   -0.2386   -1.2478 C.ar      1 ACP        -0.1386
     26 C6         -4.7432    0.6719   -2.0470 C.ar      1 ACP         0.4778
     27 N6         -5.9725    0.9415   -1.6366 N.pl3     1 ACP        -0.8290
     28 N1         -4.1703    1.1517   -3.1536 N.pl3     1 ACP        -0.6985
     29 C2         -2.8174    0.7994   -3.5215 C.ar      1 ACP         0.6179
     30 N3         -2.0475    0.0097   -2.8393 N.ar      1 ACP        -0.5105
     31 C4         -2.6278   -0.4836   -1.7071 C.ar      1 ACP         0.2753
     32 HOG2       -4.5417   -2.1187    5.9301 H         1 ACP         0.4487
     33 HOG3       -2.9017   -3.3648    7.9333 H         1 ACP         0.4487
     34 H3B1       -3.2488   -6.4040    5.6030 H         1 ACP         0.1088
     35 H3B2       -4.8701   -5.8482    6.0089 H         1 ACP         0.1088
     36 H5'1       -1.7614   -3.4428    2.4166 H         1 ACP         0.0327
     37 H5'2       -0.1870   -3.8724    3.1344 H         1 ACP         0.0327
     38 H4'         0.8883   -3.6447    0.8783 H         1 ACP         0.1275
     39 H3'        -0.7368   -1.2359    1.9871 H         1 ACP         0.0637
     40 HO3'        1.1625   -1.9325    3.0084 H         1 ACP         0.4127
     41 H2'        -0.0343   -0.0280    0.0196 H         1 ACP         0.0692
     42 HO2'        2.1443   -0.7955    0.0378 H         1 ACP         0.4431
     43 H1'        -0.5175   -2.1046   -1.7826 H         1 ACP         0.1199
     44 H8         -3.2310   -2.1319    1.1889 H         1 ACP         0.2941
     45 HN61       -6.3230    0.5316   -0.7829 H         1 ACP         0.4754
     46 HN62       -6.5628    1.5584   -2.1760 H         1 ACP         0.4754
     47 H2         -2.4822    1.2710   -4.4579 H         1 ACP         0.0886
     48 H48        -4.7200    1.7780   -3.7346 H         1 ACP         0.4707
@<TRIPOS>BOND
     1    1    2 2
     2    1    3 1
     3    1    4 1
     4    1    8 1
     5    3   32 1
     6    4   33 1
     7    5    6 2
     8    5    7 1
     9    5    8 1
    10    5   12 1
    11    8   34 1
    12    8   35 1
    13    9   10 2
    14    9   11 1
    15    9   12 1
    16    9   13 1
    17   13   14 1
    18   14   15 1
    19   14   36 1
    20   14   37 1
    21   15   16 1
    22   15   17 1
    23   15   38 1
    24   16   21 1
    25   17   18 1
    26   17   19 1
    27   17   39 1
    28   18   40 1
    29   19   20 1
    30   19   21 1
    31   19   41 1
    32   20   42 1
    33   21   22 1
    34   21   43 1
    35   22   23 ar
    36   22   31 ar
    37   23   24 ar
    38   23   44 1
    39   24   25 ar
    40   25   26 ar
    41   25   31 ar
    42   26   27 1
    43   26   28 ar
    44   27   45 1
    45   27   46 1
    46   28   29 ar
    47   28   48 1
    48   29   30 ar
    49   29   47 1
    50   30   31 ar
@<TRIPOS>SUBSTRUCTURE
     1 ACP         1 GROUP 0 A     ****
@<TRIPOS>MOLECULE
[[5-(6-amino-1,8-dihydropurine-6,8-diylium-7-id-9-yl)-3,4-dihydroxy-tetrahydrofuran-2-yl]methoxy-oxido-phosphoryl]oxy-(phosphonomethyl)phosphinate
   48    50     1     0     0
SMALL
USER_CHARGES

@<TRIPOS>ATOM
      1 PG          2.1609    1.2186   -8.0034 P.3       1 ACP         1.6558
      2 O1G         3.1421    0.1048   -7.7939 O.2       1 ACP        -0.9020
      3 O2G         0.7815    0.8004   -8.7333 O.3       1 ACP        -0.8036
      4 O3G         2.6983    2.4579   -8.8895 O.3       1 ACP        -0.8036
      5 PB          0.7207    1.1029   -5.1325 P.3       1 ACP         1.4945
      6 O1B        -0.5447    0.5313   -5.7288 O.co2     1 ACP        -0.8481
      7 O2B         0.7063    2.0010   -3.9173 O.co2     1 ACP        -0.8481
      8 C3B         1.5995    2.0140   -6.4810 C.3       1 ACP        -0.6636
      9 PA          3.3317   -0.0541   -4.3262 P.3       1 ACP         1.6023
     10 O1A         4.1267    0.9765   -5.0986 O.co2     1 ACP        -0.8673
     11 O2A         3.8308   -1.4772   -4.2013 O.co2     1 ACP        -0.8673
     12 O3A         1.8123   -0.0905   -4.9242 O.3       1 ACP        -0.8150
     13 O5'         3.0199    0.5139   -2.8245 O.3       1 ACP        -0.5522
     14 C5'         2.2816   -0.2918   -1.9206 C.3       1 ACP         0.2181
     15 C4'         2.7248    0.0226   -0.4980 C.3       1 ACP         0.0915
     16 O4'         2.4697    1.4219   -0.2462 O.3       1 ACP        -0.3675
     17 C3'         1.9404   -0.7419    0.5596 C.3       1 ACP         0.0748
     18 O3'         2.7418   -0.8086    1.7389 O.3       1 ACP        -0.5646
     19 C2'         0.7477    0.1630    0.7858 C.3       1 ACP         0.0804
     20 O2'         0.1373   -0.0577    2.0407 O.3       1 ACP        -0.5882
     21 C1'         1.3733    1.5427    0.6747 C.3       1 ACP         0.3809
     22 N9          0.4520    2.5240    0.1767 N.pl3     1 ACP        -0.4412
     23 C8          0.5793    3.3338   -1.1209 C.ar      1 ACP         0.1936
     24 N7         -0.4807    4.1508   -1.2458 N.2       1 ACP        -0.2746
     25 C5         -1.1921    3.8572   -0.1126 C.ar      1 ACP        -0.1386
     26 C6         -2.4855    4.5203    0.2163 C.ar      1 ACP         0.4778
     27 N6         -2.9873    5.4319   -0.6020 N.pl3     1 ACP        -0.8290
     28 N1         -3.0414    4.1119    1.3596 N.pl3     1 ACP        -0.6985
     29 C2         -2.4169    3.1071    2.1904 C.ar      1 ACP         0.6179
     30 N3         -1.2928    2.5191    1.9210 N.ar      1 ACP        -0.5105
     31 C4         -0.7202    2.9326    0.7534 C.ar      1 ACP         0.2753
     32 HOG2        0.8187    0.4166   -9.6351 H         1 ACP         0.4487
     33 HOG3        2.9880    2.2923   -9.8118 H         1 ACP         0.4487
     34 H3B1        2.4738    2.4723   -6.0051 H         1 ACP         0.1088
     35 H3B2        0.9308    2.8311   -6.7749 H         1 ACP         0.1088
     36 H5'1        1.2154   -0.0780   -2.0455 H         1 ACP         0.0327
     37 H5'2        2.4646   -1.3453   -2.1548 H         1 ACP         0.0327
     38 H4'         3.8046   -0.1390   -0.4011 H         1 ACP         0.1275
     39 H3'         1.6787   -1.7627    0.2719 H         1 ACP         0.0637
     40 HO3'        2.2231   -1.2979    2.3952 H         1 ACP         0.4127
     41 H2'         0.0002   -0.0084   -0.0014 H         1 ACP         0.0692
     42 HO2'       -0.1554   -0.9852    2.0577 H         1 ACP         0.4431
     43 H1'         1.7718    1.9211    1.6015 H         1 ACP         0.1199
     44 H8          1.3565    3.3309   -1.8916 H         1 ACP         0.2941
     45 HN61       -2.4952    5.6785   -1.4487 H         1 ACP         0.4754
     46 HN62       -3.8637    5.8828   -0.3819 H         1 ACP         0.4754
     47 H2         -2.9911    2.8734    3.1000 H         1 ACP         0.0886
     48 H48        -3.9253    4.5332    1.6302 H         1 ACP         0.4707
@<TRIPOS>BOND
     1    1    2 2
     2    1    3 1
     3    1    4 1
     4    1    8 1
     5    3   32 1
     6    4   33 1
     7    5    6 2
     8    5    7 1
     9    5    8 1
    10    5   12 1
    11    8   34 1
    12    8   35 1
    13    9   10 2
    14    9   11 1
    15    9   12 1
    16    9   13 1
    17   13   14 1
    18   14   15 1
    19   14   36 1
    20   14   37 1
    21   15   16 1
    22   15   17 1
    23   15   38 1
    24   16   21 1
    25   17   18 1
    26   17   19 1
    27   17   39 1
    28   18   40 1
    29   19   20 1
    30   19   21 1
    31   19   41 1
    32   20   42 1
    33   21   22 1
    34   21   43 1
    35   22   23 ar
    36   22   31 ar
    37   23   24 ar
    38   23   44 1
    39   24   25 ar
    40   25   26 ar
    41   25   31 ar
    42   26   27 1
    43   26   28 ar
    44   27   45 1
    45   27   46 1
    46   28   29 ar
    47   28   48 1
    48   29   30 ar
    49   29   47 1
    50   30   31 ar
@<TRIPOS>SUBSTRUCTURE
     1 ACP         1 GROUP 0 A     ****
@<TRIPOS>MOLECULE
[[5-(6-amino-1,8-dihydropurine-6,8-diylium-7-id-9-yl)-3,4-dihydroxy-tetrahydrofuran-2-yl]methoxy-oxido-phosphoryl]oxy-(phosphonomethyl)phosphinate
   48    50     1     0     0
SMALL
USER_CHARGES

@<TRIPOS>ATOM
      1 PG          0.6663   -9.5421    3.2152 P.3       1 ACP         1.6558
      2 O1G         0.6260   -8.6886    1.9834 O.2       1 ACP        -0.9020
      3 O2G         2.0824   -9.5728    3.9922 O.3       1 ACP        -0.8036
      4 O3G         0.3247  -11.1045    2.9870 O.3       1 ACP        -0.8036
      5 PB         -0.4754   -7.3821    5.3034 P.3       1 ACP         1.4945
      6 O1B         0.8753   -7.2231    5.9620 O.co2     1 ACP        -0.8481
      7 O2B        -1.7695   -7.2292    6.0686 O.co2     1 ACP        -0.8481
      8 C3B        -0.5021   -9.0490    4.5025 C.3       1 ACP        -0.6636
      9 PA         -1.7213   -6.2745    2.8484 P.3       1 ACP         1.6023
     10 O1A        -2.8743   -5.5640    3.5241 O.co2     1 ACP        -0.8673
     11 O2A        -1.9411   -7.5856    2.1255 O.co2     1 ACP        -0.8673
     12 O3A        -0.5281   -6.4829    3.9441 O.3       1 ACP        -0.8150
     13 O5'        -0.9728   -5.2428    1.8236 O.3       1 ACP        -0.5522
     14 C5'        -0.7840   -3.8935    2.2172 C.3       1 ACP         0.2181
     15 C4'        -0.0724   -3.1466    1.1027 C.3       1 ACP         0.0915
     16 O4'        -0.8674   -3.1929   -0.0945 O.3       1 ACP        -0.3675
     17 C3'         0.1338   -1.6715    1.4027 C.3       1 ACP         0.0748
     18 O3'         1.2893   -1.4445    2.1808 O.3       1 ACP        -0.5646
     19 C2'         0.2158   -1.0724    0.0128 C.3       1 ACP         0.0804
     20 O2'         1.5141   -1.2448   -0.5513 O.3       1 ACP        -0.5882
     21 C1'        -0.7897   -1.9176   -0.7583 C.3       1 ACP         0.3809
     22 N9         -2.1040   -1.3333   -0.7704 N.pl3     1 ACP        -0.4412
     23 C8         -3.2124   -1.5345    0.2719 C.ar      1 ACP         0.1936
     24 N7         -4.2964   -0.8234   -0.0828 N.2       1 ACP        -0.2746
     25 C5         -3.8754   -0.2386   -1.2478 C.ar      1 ACP        -0.1386
     26 C6         -4.7432    0.6719   -2.0470 C.ar      1 ACP         0.4778
     27 N6         -5.9725    0.9415   -1.6366 N.pl3     1 ACP        -0.8290
     28 N1         -4.1703    1.1517   -3.1536 N.pl3     1 ACP        -0.6985
     29 C2         -2.8174    0.7994   -3.5215 C.ar      1 ACP         0.6179
     30 N3         -2.0475    0.0097   -2.8393 N.ar      1 ACP        -0.5105
     31 C4         -2.6278   -0.4836   -1.7071 C.ar      1 ACP         0.2753
     32 HOG2        2.8774   -9.8972    3.5182 H         1 ACP         0.4487
     33 HOG3        0.8882  -11.6304    2.3805 H         1 ACP         0.4487
     34 H3B1       -1.5125   -9.1629    4.0938 H         1 ACP         0.1088
     35 H3B2       -0.4040   -9.7744    5.3182 H         1 ACP         0.1088
     36 H5'1       -1.7614   -3.4428    2.4166 H         1 ACP         0.0327
     37 H5'2       -0.1870   -3.8724    3.1344 H         1 ACP         0.0327
     38 H4'         0.8883   -3.6447    0.8783 H         1 ACP         0.1275
     39 H3'        -0.7368   -1.2359    1.9871 H         1 ACP         0.0637
     40 HO3'        1.3407   -0.4871    2.3218 H         1 ACP         0.4127
     41 H2'        -0.0343   -0.0280    0.0196 H         1 ACP         0.0692
     42 HO2'        2.1443   -0.7955    0.0378 H         1 ACP         0.4431
     43 H1'        -0.5175   -2.1046   -1.7826 H         1 ACP         0.1199
     44 H8         -3.2310   -2.1319    1.1889 H         1 ACP         0.2941
     45 HN61       -6.3230    0.5316   -0.7829 H         1 ACP         0.4754
     46 HN62       -6.5628    1.5584   -2.1760 H         1 ACP         0.4754
     47 H2         -2.4822    1.2710   -4.4579 H         1 ACP         0.0886
     48 H48        -4.7200    1.7780   -3.7346 H         1 ACP         0.4707
@<TRIPOS>BOND
     1    1    2 2
     2    1    3 1
     3    1    4 1
     4    1    8 1
     5    3   32 1
     6    4   33 1
     7    5    6 2
     8    5    7 1
     9    5    8 1
    10    5   12 1
    11    8   34 1
    12    8   35 1
    13    9   10 2
    14    9   11 1
    15    9   12 1
    16    9   13 1
    17   13   14 1
    18   14   15 1
    19   14   36 1
    20   14   37 1
    21   15   16 1
    22   15   17 1
    23   15   38 1
    24   16   21 1
    25   17   18 1
    26   17   19 1
    27   17   39 1
    28   18   40 1
    29   19   20 1
    30   19   21 1
    31   19   41 1
    32   20   42 1
    33   21   22 1
    34   21   43 1
    35   22   23 ar
    36   22   31 ar
    37   23   24 ar
    38   23   44 1
    39   24   25 ar
    40   25   26 ar
    41   25   31 ar
    42   26   27 1
    43   26   28 ar
    44   27   45 1
    45   27   46 1
    46   28   29 ar
    47   28   48 1
    48   29   30 ar
    49   29   47 1
    50   30   31 ar
@<TRIPOS>SUBSTRUCTURE
     1 ACP         1 GROUP 0 A     ****
@<TRIPOS>MOLECULE
[[5-(6-amino-1,8-dihydropurine-6,8-diylium-7-id-9-yl)-3,4-dihydroxy-tetrahydrofuran-2-yl]methoxy-oxido-phosphoryl]oxy-(phosphonomethyl)phosphinate
   48    50     1     0     0
SMALL
USER_CHARGES

@<TRIPOS>ATOM
      1 PG         -2.1426    0.2536   -3.7289 P.3       1 ACP         1.6558
      2 O1G        -1.2781   -0.2695   -2.6215 O.2       1 ACP        -0.9020
      3 O2G        -3.5017    0.9903   -3.2594 O.3       1 ACP        -0.8036
      4 O3G        -2.6570   -0.8526   -4.7879 O.3       1 ACP        -0.8036
      5 PB          0.1937    1.1445   -5.7483 P.3       1 ACP         1.4945
      6 O1B         0.5475    2.4118   -6.4915 O.co2     1 ACP        -0.8481
      7 O2B        -0.0052   -0.1766   -6.4545 O.co2     1 ACP        -0.8481
      8 C3B        -1.3435    1.4883   -4.7789 C.3       1 ACP        -0.6636
      9 PA          2.7380    0.3741   -4.4295 P.3       1 ACP         1.6023
     10 O1A         3.6394    1.3278   -5.1833 O.co2     1 ACP        -0.8673
     11 O2A         2.7083   -1.0978   -4.7798 O.co2     1 ACP        -0.8673
     12 O3A         1.2106    0.9496   -4.4885 O.3       1 ACP        -0.8150
     13 O5'         3.0199    0.5139   -2.8245 O.3       1 ACP        -0.5522
     14 C5'         2.2816   -0.2918   -1.9206 C.3       1 ACP         0.2181
     15 C4'         2.7248    0.0226   -0.4980 C.3       1 ACP         0.0915
     16 O4'         2.4697    1.4219   -0.2462 O.3       1 ACP        -0.3675
     17 C3'         1.9404   -0.7419    0.5596 C.3       1 ACP         0.0748
     18 O3'         2.7418   -0.8086    1.7389 O.3       1 ACP        -0.5646
     19 C2'         0.7477    0.1630    0.7858 C.3       1 ACP         0.0804
     20 O2'         0.1373   -0.0577    2.0407 O.3       1 ACP        -0.5882
     21 C1'         1.3733    1.5427    0.6747 C.3       1 ACP         0.3809
     22 N9          0.4520    2.5240    0.1767 N.pl3     1 ACP        -0.4412
     23 C8         -0.7463    2.2774   -0.7501 C.ar      1 ACP         0.1936
     24 N7         -1.3714    3.4419   -0.9948 N.2       1 ACP        -0.2746
     25 C5         -0.6104    4.3223   -0.2723 C.ar      1 ACP        -0.1386
     26 C6         -0.9062    5.7820   -0.2194 C.ar      1 ACP         0.4778
     27 N6         -1.9385    6.2713   -0.8881 N.pl3     1 ACP        -0.8290
     28 N1         -0.0613    6.4906    0.5336 N.pl3     1 ACP        -0.6985
     29 C2          1.0416    5.8662    1.2291 C.ar      1 ACP         0.6179
     30 N3          1.3146    4.5989    1.1954 N.ar      1 ACP        -0.5105
     31 C4          0.4541    3.8697    0.4273 C.ar      1 ACP         0.2753
     32 HOG2       -4.1596    0.4850   -2.7363 H         1 ACP         0.4487
     33 HOG3       -3.2036   -1.6006   -4.4658 H         1 ACP         0.4487
     34 H3B1       -2.0837    1.8285   -5.5119 H         1 ACP         0.1088
     35 H3B2       -1.1084    2.3473   -4.1401 H         1 ACP         0.1088
     36 H5'1        1.2154   -0.0780   -2.0455 H         1 ACP         0.0327
     37 H5'2        2.4646   -1.3453   -2.1548 H         1 ACP         0.0327
     38 H4'         3.8046   -0.1390   -0.4011 H         1 ACP         0.1275
     39 H3'         1.6787   -1.7627    0.2719 H         1 ACP         0.0637
     40 HO3'        2.2231   -1.2979    2.3952 H         1 ACP         0.4127
     41 H2'         0.0002   -0.0084   -0.0014 H         1 ACP         0.0692
     42 HO2'       -0.6132    0.5577    2.1063 H         1 ACP         0.4431
     43 H1'         1.7718    1.9211    1.6015 H         1 ACP         0.1199
     44 H8         -1.1244    1.3534   -1.1987 H         1 ACP         0.2941
     45 HN61       -2.5259    5.6573   -1.4336 H         1 ACP         0.4754
     46 HN62       -2.1416    7.2600   -0.8539 H         1 ACP         0.4754
     47 H2          1.6509    6.5764    1.8088 H         1 ACP         0.0886
     48 H48        -0.2190    7.4917    0.6033 H         1 ACP         0.4707
@<TRIPOS>BOND
     1    1    2 2
     2    1    3 1
     3    1    4 1
     4    1    8 1
     5    3   32 1
     6    4   33 1
     7    5    6 2
     8    5    7 1
     9    5    8 1
    10    5   12 1
    11    8   34 1
    12    8   35 1
    13    9   10 2
    14    9   11 1
    15    9   12 1
    16    9   13 1
    17   13   14 1
    18   14   15 1
    19   14   36 1
    20   14   37 1
    21   15   16 1
    22   15   17 1
    23   15   38 1
    24   16   21 1
    25   17   18 1
    26   17   19 1
    27   17   39 1
    28   18   40 1
    29   19   20 1
    30   19   21 1
    31   19   41 1
    32   20   42 1
    33   21   22 1
    34   21   43 1
    35   22   23 ar
    36   22   31 ar
    37   23   24 ar
    38   23   44 1
    39   24   25 ar
    40   25   26 ar
    41   25   31 ar
    42   26   27 1
    43   26   28 ar
    44   27   45 1
    45   27   46 1
    46   28   29 ar
    47   28   48 1
    48   29   30 ar
    49   29   47 1
    50   30   31 ar
@<TRIPOS>SUBSTRUCTURE
     1 ACP         1 GROUP 0 A     ****
@<TRIPOS>MOLECULE
[[5-(6-amino-1,8-dihydropurine-6,8-diylium-7-id-9-yl)-3,4-dihydroxy-tetrahydrofuran-2-yl]methoxy-oxido-phosphoryl]oxy-(phosphonomethyl)phosphinate
   48    50     1     0     0
SMALL
USER_CHARGES

@<TRIPOS>ATOM
      1 PG          1.3194    0.8917   -6.0785 P.3       1 ACP         1.6558
      2 O1G         1.1069    0.9174   -4.5947 O.2       1 ACP        -0.9020
      3 O2G         2.4163    1.9362   -6.6406 O.3       1 ACP        -0.8036
      4 O3G         0.0091    1.2001   -6.9715 O.3       1 ACP        -0.8036
      5 PB          3.4755   -1.4893   -6.1885 P.3       1 ACP         1.4945
      6 O1B         4.5939   -0.5347   -6.5367 O.co2     1 ACP        -0.8481
      7 O2B         3.4518   -2.9183   -6.6793 O.co2     1 ACP        -0.8481
      8 C3B         1.8919   -0.6968   -6.7223 C.3       1 ACP        -0.6636
      9 PA          2.1358   -2.2685   -3.6578 P.3       1 ACP         1.6023
     10 O1A         2.4845   -3.7405   -3.7033 O.co2     1 ACP        -0.8673
     11 O2A         0.7432   -1.7950   -4.0135 O.co2     1 ACP        -0.8673
     12 O3A         3.2094   -1.4534   -4.5800 O.3       1 ACP        -0.8150
     13 O5'         2.5238   -1.6632   -2.1888 O.3       1 ACP        -0.5522
     14 C5'         2.2816   -0.2918   -1.9206 C.3       1 ACP         0.2181
     15 C4'         2.7248    0.0226   -0.4980 C.3       1 ACP         0.0915
     16 O4'         2.4697    1.4219   -0.2462 O.3       1 ACP        -0.3675
     17 C3'         1.9404   -0.7419    0.5596 C.3       1 ACP         0.0748
     18 O3'         2.7418   -0.8086    1.7389 O.3       1 ACP        -0.5646
     19 C2'         0.7477    0.1630    0.7858 C.3       1 ACP         0.0804
     20 O2'         0.1373   -0.0577    2.0407 O.3       1 ACP        -0.5882
     21 C1'         1.3733    1.5427    0.6747 C.3       1 ACP         0.3809
     22 N9          0.4520    2.5240    0.1767 N.pl3     1 ACP        -0.4412
     23 C8         -1.0660    2.5608    0.3999 C.ar      1 ACP         0.1936
     24 N7         -1.5852    3.6333   -0.2221 N.2       1 ACP        -0.2746
     25 C5         -0.4682    4.1996   -0.7771 C.ar      1 ACP        -0.1386
     26 C6         -0.5216    5.4476   -1.5899 C.ar      1 ACP         0.4778
     27 N6         -1.6813    6.0510   -1.7982 N.pl3     1 ACP        -0.8290
     28 N1          0.6621    5.8575   -2.0523 N.pl3     1 ACP        -0.6985
     29 C2          1.8795    5.1301   -1.7717 C.ar      1 ACP         0.6179
     30 N3          1.9458    4.0434   -1.0670 N.ar      1 ACP        -0.5105
     31 C4          0.7388    3.6199   -0.5917 C.ar      1 ACP         0.2753
     32 HOG2        2.2785    2.8959   -6.4917 H         1 ACP         0.4487
     33 HOG3       -0.4456    2.0627   -6.8660 H         1 ACP         0.4487
     34 H3B1        1.1097   -1.4372   -6.5202 H         1 ACP         0.1088
     35 H3B2        1.9610   -0.5943   -7.8113 H         1 ACP         0.1088
     36 H5'1        2.8430    0.3138   -2.6391 H         1 ACP         0.0327
     37 H5'2        1.2126   -0.0907   -2.0421 H         1 ACP         0.0327
     38 H4'         3.8046   -0.1390   -0.4011 H         1 ACP         0.1275
     39 H3'         1.6787   -1.7627    0.2719 H         1 ACP         0.0637
     40 HO3'        2.2231   -1.2979    2.3952 H         1 ACP         0.4127
     41 H2'         0.0002   -0.0084   -0.0014 H         1 ACP         0.0692
     42 HO2'       -0.1554   -0.9852    2.0577 H         1 ACP         0.4431
     43 H1'         1.7718    1.9211    1.6015 H         1 ACP         0.1199
     44 H8         -1.7235    1.8833    0.9537 H         1 ACP         0.2941
     45 HN61       -2.5296    5.6672   -1.4072 H         1 ACP         0.4754
     46 HN62       -1.7205    6.8969   -2.3483 H         1 ACP         0.4754
     47 H2          2.7750    5.5878   -2.2190 H         1 ACP         0.0886
     48 H48         0.6808    6.7046   -2.6128 H         1 ACP         0.4707
@<TRIPOS>BOND
     1    1    2 2
     2    1    3 1
     3    1    4 1
     4    1    8 1
     5    3   32 1
     6    4   33 1
     7    5    6 2
     8    5    7 1
     9    5    8 1
    10    5   12 1
    11    8   34 1
    12    8   35 1
    13    9   10 2
    14    9   11 1
    15    9   12 1
    16    9   13 1
    17   13   14 1
    18   14   15 1
    19   14   36 1
    20   14   37 1
    21   15   16 1
    22   15   17 1
    23   15   38 1
    24   16   21 1
    25   17   18 1
    26   17   19 1
    27   17   39 1
    28   18   40 1
    29   19   20 1
    30   19   21 1
    31   19   41 1
    32   20   42 1
    33   21   22 1
    34   21   43 1
    35   22   23 ar
    36   22   31 ar
    37   23   24 ar
    38   23   44 1
    39   24   25 ar
    40   25   26 ar
    41   25   31 ar
    42   26   27 1
    43   26   28 ar
    44   27   45 1
    45   27   46 1
    46   28   29 ar
    47   28   48 1
    48   29   30 ar
    49   29   47 1
    50   30   31 ar
@<TRIPOS>SUBSTRUCTURE
     1 ACP         1 GROUP 0 A     ****
@<TRIPOS>MOLECULE
[[5-(6-amino-1,8-dihydropurine-6,8-diylium-7-id-9-yl)-3,4-dihydroxy-tetrahydrofuran-2-yl]methoxy-oxido-phosphoryl]oxy-(phosphonomethyl)phosphinate
   48    50     1     0     0
SMALL
USER_CHARGES

@<TRIPOS>ATOM
      1 PG         -1.3720   -3.4281    6.4646 P.3       1 ACP         1.6558
      2 O1G        -1.8268   -2.8248    7.7595 O.2       1 ACP        -0.9020
      3 O2G         0.1237   -3.0303    6.0011 O.3       1 ACP        -0.8036
      4 O3G        -2.2772   -3.0668    5.1763 O.3       1 ACP        -0.8036
      5 PB         -0.8212   -6.2256    4.9812 P.3       1 ACP         1.4945
      6 O1B        -0.9312   -7.6841    5.3609 O.co2     1 ACP        -0.8481
      7 O2B         0.4633   -5.6210    4.4634 O.co2     1 ACP        -0.8481
      8 C3B        -1.3425   -5.2349    6.4535 C.3       1 ACP        -0.6636
      9 PA         -2.2659   -6.0657    2.3941 P.3       1 ACP         1.6023
     10 O1A        -3.5371   -5.3651    1.9652 O.co2     1 ACP        -0.8673
     11 O2A        -2.0598   -7.5360    2.1012 O.co2     1 ACP        -0.8673
     12 O3A        -2.0569   -5.8242    3.9959 O.3       1 ACP        -0.8150
     13 O5'        -0.9728   -5.2428    1.8236 O.3       1 ACP        -0.5522
     14 C5'        -0.7840   -3.8935    2.2172 C.3       1 ACP         0.2181
     15 C4'        -0.0724   -3.1466    1.1027 C.3       1 ACP         0.0915
     16 O4'        -0.8674   -3.1929   -0.0945 O.3       1 ACP        -0.3675
     17 C3'         0.1338   -1.6715    1.4027 C.3       1 ACP         0.0748
     18 O3'         1.2893   -1.4445    2.1808 O.3       1 ACP        -0.5646
     19 C2'         0.2158   -1.0724    0.0128 C.3       1 ACP         0.0804
     20 O2'         1.5141   -1.2448   -0.5513 O.3       1 ACP        -0.5882
     21 C1'        -0.7897   -1.9176   -0.7583 C.3       1 ACP         0.3809
     22 N9         -2.1040   -1.3333   -0.7704 N.pl3     1 ACP        -0.4412
     23 C8         -3.2124   -1.5345    0.2719 C.ar      1 ACP         0.1936
     24 N7         -4.2964   -0.8234   -0.0828 N.2       1 ACP        -0.2746
     25 C5         -3.8754   -0.2386   -1.2478 C.ar      1 ACP        -0.1386
     26 C6         -4.7432    0.6719   -2.0470 C.ar      1 ACP         0.4778
     27 N6         -5.9725    0.9415   -1.6366 N.pl3     1 ACP        -0.8290
     28 N1         -4.1703    1.1517   -3.1536 N.pl3     1 ACP        -0.6985
     29 C2         -2.8174    0.7994   -3.5215 C.ar      1 ACP         0.6179
     30 N3         -2.0475    0.0097   -2.8393 N.ar      1 ACP        -0.5105
     31 C4         -2.6278   -0.4836   -1.7071 C.ar      1 ACP         0.2753
     32 HOG2        0.3383   -2.0854    5.8486 H         1 ACP         0.4487
     33 HOG3       -2.3788   -2.1268    4.9154 H         1 ACP         0.4487
     34 H3B1       -0.6914   -5.5603    7.2727 H         1 ACP         0.1088
     35 H3B2       -2.3561   -5.5727    6.6977 H         1 ACP         0.1088
     36 H5'1       -1.7614   -3.4428    2.4166 H         1 ACP         0.0327
     37 H5'2       -0.1870   -3.8724    3.1344 H         1 ACP         0.0327
     38 H4'         0.8883   -3.6447    0.8783 H         1 ACP         0.1275
     39 H3'        -0.7368   -1.2359    1.9871 H         1 ACP         0.0637
     40 HO3'        1.3407   -0.4871    2.3218 H         1 ACP         0.4127
     41 H2'        -0.0343   -0.0280    0.0196 H         1 ACP         0.0692
     42 HO2'        2.1443   -0.7955    0.0378 H         1 ACP         0.4431
     43 H1'        -0.5175   -2.1046   -1.7826 H         1 ACP         0.1199
     44 H8         -3.2310   -2.1319    1.1889 H         1 ACP         0.2941
     45 HN61       -6.3230    0.5316   -0.7829 H         1 ACP         0.4754
     46 HN62       -6.5628    1.5584   -2.1760 H         1 ACP         0.4754
     47 H2         -2.4822    1.2710   -4.4579 H         1 ACP         0.0886
     48 H48        -4.7200    1.7780   -3.7346 H         1 ACP         0.4707
@<TRIPOS>BOND
     1    1    2 2
     2    1    3 1
     3    1    4 1
     4    1    8 1
     5    3   32 1
     6    4   33 1
     7    5    6 2
     8    5    7 1
     9    5    8 1
    10    5   12 1
    11    8   34 1
    12    8   35 1
    13    9   10 2
    14    9   11 1
    15    9   12 1
    16    9   13 1
    17   13   14 1
    18   14   15 1
    19   14   36 1
    20   14   37 1
    21   15   16 1
    22   15   17 1
    23   15   38 1
    24   16   21 1
    25   17   18 1
    26   17   19 1
    27   17   39 1
    28   18   40 1
    29   19   20 1
    30   19   21 1
    31   19   41 1
    32   20   42 1
    33   21   22 1
    34   21   43 1
    35   22   23 ar
    36   22   31 ar
    37   23   24 ar
    38   23   44 1
    39   24   25 ar
    40   25   26 ar
    41   25   31 ar
    42   26   27 1
    43   26   28 ar
    44   27   45 1
    45   27   46 1
    46   28   29 ar
    47   28   48 1
    48   29   30 ar
    49   29   47 1
    50   30   31 ar
@<TRIPOS>SUBSTRUCTURE
     1 ACP         1 GROUP 0 A     ****
@<TRIPOS>MOLECULE
[[5-(6-amino-1,8-dihydropurine-6,8-diylium-7-id-9-yl)-3,4-dihydroxy-tetrahydrofuran-2-yl]methoxy-oxido-phosphoryl]oxy-(phosphonomethyl)phosphinate
   48    50     1     0     0
SMALL
USER_CHARGES

@<TRIPOS>ATOM
      1 PG         -1.9905   -8.5502    2.2289 P.3       1 ACP         1.6558
      2 O1G        -1.7746   -9.5681    1.1497 O.2       1 ACP        -0.9020
      3 O2G        -3.4219   -8.6225    2.9747 O.3       1 ACP        -0.8036
      4 O3G        -1.8853   -7.0084    1.7583 O.3       1 ACP        -0.8036
      5 PB         -0.8530   -7.5067    5.0480 P.3       1 ACP         1.4945
      6 O1B         0.2855   -7.9003    5.9603 O.co2     1 ACP        -0.8481
      7 O2B        -2.2852   -7.4429    5.5258 O.co2     1 ACP        -0.8481
      8 C3B        -0.8079   -8.6463    3.5919 C.3       1 ACP        -0.6636
      9 PA         -0.5283   -4.5720    4.7510 P.3       1 ACP         1.6023
     10 O1A         0.4835   -4.3793    5.8599 O.co2     1 ACP        -0.8673
     11 O2A        -1.9777   -4.1878    4.9548 O.co2     1 ACP        -0.8673
     12 O3A        -0.4709   -6.1295    4.2627 O.3       1 ACP        -0.8150
     13 O5'         0.0100   -3.8402    3.3910 O.3       1 ACP        -0.5522
     14 C5'        -0.7840   -3.8935    2.2172 C.3       1 ACP         0.2181
     15 C4'        -0.0724   -3.1466    1.1027 C.3       1 ACP         0.0915
     16 O4'        -0.8674   -3.1929   -0.0945 O.3       1 ACP        -0.3675
     17 C3'         0.1338   -1.6715    1.4027 C.3       1 ACP         0.0748
     18 O3'         1.2893   -1.4445    2.1808 O.3       1 ACP        -0.5646
     19 C2'         0.2158   -1.0724    0.0128 C.3       1 ACP         0.0804
     20 O2'         1.5141   -1.2448   -0.5513 O.3       1 ACP        -0.5882
     21 C1'        -0.7897   -1.9176   -0.7583 C.3       1 ACP         0.3809
     22 N9         -2.1040   -1.3333   -0.7704 N.pl3     1 ACP        -0.4412
     23 C8         -3.2124   -1.5345    0.2719 C.ar      1 ACP         0.1936
     24 N7         -4.2964   -0.8234   -0.0828 N.2       1 ACP        -0.2746
     25 C5         -3.8754   -0.2386   -1.2478 C.ar      1 ACP        -0.1386
     26 C6         -4.7432    0.6719   -2.0470 C.ar      1 ACP         0.4778
     27 N6         -5.9725    0.9415   -1.6366 N.pl3     1 ACP        -0.8290
     28 N1         -4.1703    1.1517   -3.1536 N.pl3     1 ACP        -0.6985
     29 C2         -2.8174    0.7994   -3.5215 C.ar      1 ACP         0.6179
     30 N3         -2.0475    0.0097   -2.8393 N.ar      1 ACP        -0.5105
     31 C4         -2.6278   -0.4836   -1.7071 C.ar      1 ACP         0.2753
     32 HOG2       -4.2396   -8.5053    2.4458 H         1 ACP         0.4487
     33 HOG3       -2.5005   -6.6789    1.0691 H         1 ACP         0.4487
     34 H3B1       -0.8644   -9.6583    4.0084 H         1 ACP         0.1088
     35 H3B2        0.1917   -8.5356    3.1563 H         1 ACP         0.1088
     36 H5'1       -0.9357   -4.9414    1.9397 H         1 ACP         0.0327
     37 H5'2       -1.7557   -3.4349    2.4259 H         1 ACP         0.0327
     38 H4'         0.8883   -3.6447    0.8783 H         1 ACP         0.1275
     39 H3'        -0.7368   -1.2359    1.9871 H         1 ACP         0.0637
     40 HO3'        1.3407   -0.4871    2.3218 H         1 ACP         0.4127
     41 H2'        -0.0343   -0.0280    0.0196 H         1 ACP         0.0692
     42 HO2'        2.1443   -0.7955    0.0378 H         1 ACP         0.4431
     43 H1'        -0.5175   -2.1046   -1.7826 H         1 ACP         0.1199
     44 H8         -3.2310   -2.1319    1.1889 H         1 ACP         0.2941
     45 HN61       -6.3230    0.5316   -0.7829 H         1 ACP         0.4754
     46 HN62       -6.5628    1.5584   -2.1760 H         1 ACP         0.4754
     47 H2         -2.4822    1.2710   -4.4579 H         1 ACP         0.0886
     48 H48        -4.7200    1.7780   -3.7346 H         1 ACP         0.4707
@<TRIPOS>BOND
     1    1    2 2
     2    1    3 1
     3    1    4 1
     4    1    8 1
     5    3   32 1
     6    4   33 1
     7    5    6 2
     8    5    7 1
     9    5    8 1
    10    5   12 1
    11    8   34 1
    12    8   35 1
    13    9   10 2
    14    9   11 1
    15    9   12 1
    16    9   13 1
    17   13   14 1
    18   14   15 1
    19   14   36 1
    20   14   37 1
    21   15   16 1
    22   15   17 1
    23   15   38 1
    24   16   21 1
    25   17   18 1
    26   17   19 1
    27   17   39 1
    28   18   40 1
    29   19   20 1
    30   19   21 1
    31   19   41 1
    32   20   42 1
    33   21   22 1
    34   21   43 1
    35   22   23 ar
    36   22   31 ar
    37   23   24 ar
    38   23   44 1
    39   24   25 ar
    40   25   26 ar
    41   25   31 ar
    42   26   27 1
    43   26   28 ar
    44   27   45 1
    45   27   46 1
    46   28   29 ar
    47   28   48 1
    48   29   30 ar
    49   29   47 1
    50   30   31 ar
@<TRIPOS>SUBSTRUCTURE
     1 ACP         1 GROUP 0 A     ****
@<TRIPOS>MOLECULE
[[5-(6-amino-1,8-dihydropurine-6,8-diylium-7-id-9-yl)-3,4-dihydroxy-tetrahydrofuran-2-yl]methoxy-oxido-phosphoryl]oxy-(phosphonomethyl)phosphinate
   48    50     1     0     0
SMALL
USER_CHARGES

@<TRIPOS>ATOM
      1 PG          0.3767   -4.6646   -5.9884 P.3       1 ACP         1.6558
      2 O1G        -0.4218   -4.7881   -4.7257 O.2       1 ACP        -0.9020
      3 O2G        -0.4173   -4.0500   -7.2542 O.3       1 ACP        -0.8036
      4 O3G         0.9890   -6.0463   -6.5591 O.3       1 ACP        -0.8036
      5 PB          1.7233   -1.8066   -5.3979 P.3       1 ACP         1.4945
      6 O1B         0.8734   -1.1276   -6.4468 O.co2     1 ACP        -0.8481
      7 O2B         3.1234   -1.3427   -5.0690 O.co2     1 ACP        -0.8481
      8 C3B         1.8280   -3.5966   -5.8515 C.3       1 ACP        -0.6636
      9 PA          1.2667   -2.6319   -2.5842 P.3       1 ACP         1.6023
     10 O1A         1.7714   -4.0387   -2.8224 O.co2     1 ACP        -0.8673
     11 O2A         0.1413   -2.3719   -1.6065 O.co2     1 ACP        -0.8673
     12 O3A         0.8610   -1.9767   -4.0243 O.3       1 ACP        -0.8150
     13 O5'         2.5238   -1.6632   -2.1888 O.3       1 ACP        -0.5522
     14 C5'         2.2816   -0.2918   -1.9206 C.3       1 ACP         0.2181
     15 C4'         2.7248    0.0226   -0.4980 C.3       1 ACP         0.0915
     16 O4'         2.4697    1.4219   -0.2462 O.3       1 ACP        -0.3675
     17 C3'         1.9404   -0.7419    0.5596 C.3       1 ACP         0.0748
     18 O3'         2.7418   -0.8086    1.7389 O.3       1 ACP        -0.5646
     19 C2'         0.7477    0.1630    0.7858 C.3       1 ACP         0.0804
     20 O2'         0.1373   -0.0577    2.0407 O.3       1 ACP        -0.5882
     21 C1'         1.3733    1.5427    0.6747 C.3       1 ACP         0.3809
     22 N9          0.4520    2.5240    0.1767 N.pl3     1 ACP        -0.4412
     23 C8         -0.3054    2.4845   -1.1576 C.ar      1 ACP         0.1936
     24 N7         -1.0755    3.5806   -1.2691 N.2       1 ACP        -0.2746
     25 C5         -0.8043    4.2306   -0.0942 C.ar      1 ACP        -0.1386
     26 C6         -1.4324    5.5335    0.2646 C.ar      1 ACP         0.4778
     27 N6         -2.2885    6.1054   -0.5675 N.pl3     1 ACP        -0.8290
     28 N1         -1.0537    6.0229    1.4478 N.pl3     1 ACP        -0.6985
     29 C2         -0.1096    5.3242    2.2908 C.ar      1 ACP         0.6179
     30 N3          0.4468    4.1904    1.9960 N.ar      1 ACP        -0.5105
     31 C4          0.0631    3.6855    0.7877 C.ar      1 ACP         0.2753
     32 HOG2       -1.2147   -4.5149   -7.5861 H         1 ACP         0.4487
     33 HOG3        0.3767   -6.7739   -6.7992 H         1 ACP         0.4487
     34 H3B1        2.5026   -4.0478   -5.1151 H         1 ACP         0.1088
     35 H3B2        2.3423   -3.6305   -6.8187 H         1 ACP         0.1088
     36 H5'1        2.8430    0.3138   -2.6391 H         1 ACP         0.0327
     37 H5'2        1.2126   -0.0907   -2.0421 H         1 ACP         0.0327
     38 H4'         3.8046   -0.1390   -0.4011 H         1 ACP         0.1275
     39 H3'         1.6787   -1.7627    0.2719 H         1 ACP         0.0637
     40 HO3'        2.2231   -1.2979    2.3952 H         1 ACP         0.4127
     41 H2'         0.0002   -0.0084   -0.0014 H         1 ACP         0.0692
     42 HO2'       -0.1554   -0.9852    2.0577 H         1 ACP         0.4431
     43 H1'         1.7718    1.9211    1.6015 H         1 ACP         0.1199
     44 H8         -0.2991    1.7413   -1.9611 H         1 ACP         0.2941
     45 HN61       -2.5167    5.6603   -1.4447 H         1 ACP         0.4754
     46 HN62       -2.7159    6.9882   -0.3270 H         1 ACP         0.4754
     47 H2          0.1059    5.8491    3.2340 H         1 ACP         0.0886
     48 H48        -1.4532    6.9099    1.7401 H         1 ACP         0.4707
@<TRIPOS>BOND
     1    1    2 2
     2    1    3 1
     3    1    4 1
     4    1    8 1
     5    3   32 1
     6    4   33 1
     7    5    6 2
     8    5    7 1
     9    5    8 1
    10    5   12 1
    11    8   34 1
    12    8   35 1
    13    9   10 2
    14    9   11 1
    15    9   12 1
    16    9   13 1
    17   13   14 1
    18   14   15 1
    19   14   36 1
    20   14   37 1
    21   15   16 1
    22   15   17 1
    23   15   38 1
    24   16   21 1
    25   17   18 1
    26   17   19 1
    27   17   39 1
    28   18   40 1
    29   19   20 1
    30   19   21 1
    31   19   41 1
    32   20   42 1
    33   21   22 1
    34   21   43 1
    35   22   23 ar
    36   22   31 ar
    37   23   24 ar
    38   23   44 1
    39   24   25 ar
    40   25   26 ar
    41   25   31 ar
    42   26   27 1
    43   26   28 ar
    44   27   45 1
    45   27   46 1
    46   28   29 ar
    47   28   48 1
    48   29   30 ar
    49   29   47 1
    50   30   31 ar
@<TRIPOS>SUBSTRUCTURE
     1 ACP         1 GROUP 0 A     ****
@<TRIPOS>MOLECULE
[[5-(6-amino-1,8-dihydropurine-6,8-diylium-7-id-9-yl)-3,4-dihydroxy-tetrahydrofuran-2-yl]methoxy-oxido-phosphoryl]oxy-(phosphonomethyl)phosphinate
   48    50     1     0     0
SMALL
USER_CHARGES

@<TRIPOS>ATOM
      1 PG          0.9094   -7.7138    6.8898 P.3       1 ACP         1.6558
      2 O1G        -0.2579   -6.8842    7.3330 O.2       1 ACP        -0.9020
      3 O2G         0.5824   -9.2671    6.5888 O.3       1 ACP        -0.8036
      4 O3G         2.1458   -7.7805    7.9274 O.3       1 ACP        -0.8036
      5 PB          0.7813   -7.0396    3.7499 P.3       1 ACP         1.4945
      6 O1B         0.2917   -8.4295    3.4152 O.co2     1 ACP        -0.8481
      7 O2B         1.6428   -6.2373    2.8025 O.co2     1 ACP        -0.8481
      8 C3B         1.6866   -7.1498    5.3590 C.3       1 ACP        -0.6636
      9 PA         -0.5283   -4.5720    4.7510 P.3       1 ACP         1.6023
     10 O1A         0.4835   -4.3793    5.8599 O.co2     1 ACP        -0.8673
     11 O2A        -1.9777   -4.1878    4.9548 O.co2     1 ACP        -0.8673
     12 O3A        -0.4709   -6.1295    4.2627 O.3       1 ACP        -0.8150
     13 O5'         0.0100   -3.8402    3.3910 O.3       1 ACP        -0.5522
     14 C5'        -0.7840   -3.8935    2.2172 C.3       1 ACP         0.2181
     15 C4'        -0.0724   -3.1466    1.1027 C.3       1 ACP         0.0915
     16 O4'        -0.8674   -3.1929   -0.0945 O.3       1 ACP        -0.3675
     17 C3'         0.1338   -1.6715    1.4027 C.3       1 ACP         0.0748
     18 O3'         1.2893   -1.4445    2.1808 O.3       1 ACP        -0.5646
     19 C2'         0.2158   -1.0724    0.0128 C.3       1 ACP         0.0804
     20 O2'         1.5141   -1.2448   -0.5513 O.3       1 ACP        -0.5882
     21 C1'        -0.7897   -1.9176   -0.7583 C.3       1 ACP         0.3809
     22 N9         -2.1040   -1.3333   -0.7704 N.pl3     1 ACP        -0.4412
     23 C8         -3.2124   -1.5345    0.2719 C.ar      1 ACP         0.1936
     24 N7         -4.2964   -0.8234   -0.0828 N.2       1 ACP        -0.2746
     25 C5         -3.8754   -0.2386   -1.2478 C.ar      1 ACP        -0.1386
     26 C6         -4.7432    0.6719   -2.0470 C.ar      1 ACP         0.4778
     27 N6         -5.9725    0.9415   -1.6366 N.pl3     1 ACP        -0.8290
     28 N1         -4.1703    1.1517   -3.1536 N.pl3     1 ACP        -0.6985
     29 C2         -2.8174    0.7994   -3.5215 C.ar      1 ACP         0.6179
     30 N3         -2.0475    0.0097   -2.8393 N.ar      1 ACP        -0.5105
     31 C4         -2.6278   -0.4836   -1.7071 C.ar      1 ACP         0.2753
     32 HOG2        0.2241   -9.8258    7.3110 H         1 ACP         0.4487
     33 HOG3        1.9931   -8.1432    8.8258 H         1 ACP         0.4487
     34 H3B1        2.0863   -6.1459    5.5411 H         1 ACP         0.1088
     35 H3B2        2.5445   -7.8066    5.1751 H         1 ACP         0.1088
     36 H5'1       -0.9357   -4.9414    1.9397 H         1 ACP         0.0327
     37 H5'2       -1.7557   -3.4349    2.4259 H         1 ACP         0.0327
     38 H4'         0.8883   -3.6447    0.8783 H         1 ACP         0.1275
     39 H3'        -0.7368   -1.2359    1.9871 H         1 ACP         0.0637
     40 HO3'        1.1625   -1.9325    3.0084 H         1 ACP         0.4127
     41 H2'        -0.0343   -0.0280    0.0196 H         1 ACP         0.0692
     42 HO2'        2.1443   -0.7955    0.0378 H         1 ACP         0.4431
     43 H1'        -0.5175   -2.1046   -1.7826 H         1 ACP         0.1199
     44 H8         -3.2310   -2.1319    1.1889 H         1 ACP         0.2941
     45 HN61       -6.3230    0.5316   -0.7829 H         1 ACP         0.4754
     46 HN62       -6.5628    1.5584   -2.1760 H         1 ACP         0.4754
     47 H2         -2.4822    1.2710   -4.4579 H         1 ACP         0.0886
     48 H48        -4.7200    1.7780   -3.7346 H         1 ACP         0.4707
@<TRIPOS>BOND
     1    1    2 2
     2    1    3 1
     3    1    4 1
     4    1    8 1
     5    3   32 1
     6    4   33 1
     7    5    6 2
     8    5    7 1
     9    5    8 1
    10    5   12 1
    11    8   34 1
    12    8   35 1
    13    9   10 2
    14    9   11 1
    15    9   12 1
    16    9   13 1
    17   13   14 1
    18   14   15 1
    19   14   36 1
    20   14   37 1
    21   15   16 1
    22   15   17 1
    23   15   38 1
    24   16   21 1
    25   17   18 1
    26   17   19 1
    27   17   39 1
    28   18   40 1
    29   19   20 1
    30   19   21 1
    31   19   41 1
    32   20   42 1
    33   21   22 1
    34   21   43 1
    35   22   23 ar
    36   22   31 ar
    37   23   24 ar
    38   23   44 1
    39   24   25 ar
    40   25   26 ar
    41   25   31 ar
    42   26   27 1
    43   26   28 ar
    44   27   45 1
    45   27   46 1
    46   28   29 ar
    47   28   48 1
    48   29   30 ar
    49   29   47 1
    50   30   31 ar
@<TRIPOS>SUBSTRUCTURE
     1 ACP         1 GROUP 0 A     ****
@<TRIPOS>MOLECULE
[[5-(6-amino-1,8-dihydropurine-6,8-diylium-7-id-9-yl)-3,4-dihydroxy-tetrahydrofuran-2-yl]methoxy-oxido-phosphoryl]oxy-(phosphonomethyl)phosphinate
   48    50     1     0     0
SMALL
USER_CHARGES

@<TRIPOS>ATOM
      1 PG          4.4185   -3.8238   -6.6382 P.3       1 ACP         1.6558
      2 O1G         2.9198   -3.8180   -6.6695 O.2       1 ACP        -0.9020
      3 O2G         5.1403   -2.9622   -7.7987 O.3       1 ACP        -0.8036
      4 O3G         5.1085   -5.2793   -6.7614 O.3       1 ACP        -0.8036
      5 PB          4.8394   -1.4237   -4.5425 P.3       1 ACP         1.4945
      6 O1B         5.3526   -0.4981   -5.6212 O.co2     1 ACP        -0.8481
      7 O2B         5.3169   -1.3382   -3.1113 O.co2     1 ACP        -0.8481
      8 C3B         5.1352   -3.1558   -5.1197 C.3       1 ACP        -0.6636
      9 PA          2.1358   -2.2685   -3.6578 P.3       1 ACP         1.6023
     10 O1A         2.4845   -3.7405   -3.7033 O.co2     1 ACP        -0.8673
     11 O2A         0.7432   -1.7950   -4.0135 O.co2     1 ACP        -0.8673
     12 O3A         3.2094   -1.4534   -4.5800 O.3       1 ACP        -0.8150
     13 O5'         2.5238   -1.6632   -2.1888 O.3       1 ACP        -0.5522
     14 C5'         2.2816   -0.2918   -1.9206 C.3       1 ACP         0.2181
     15 C4'         2.7248    0.0226   -0.4980 C.3       1 ACP         0.0915
     16 O4'         2.4697    1.4219   -0.2462 O.3       1 ACP        -0.3675
     17 C3'         1.9404   -0.7419    0.5596 C.3       1 ACP         0.0748
     18 O3'         2.7418   -0.8086    1.7389 O.3       1 ACP        -0.5646
     19 C2'         0.7477    0.1630    0.7858 C.3       1 ACP         0.0804
     20 O2'         0.1373   -0.0577    2.0407 O.3       1 ACP        -0.5882
     21 C1'         1.3733    1.5427    0.6747 C.3       1 ACP         0.3809
     22 N9          0.4520    2.5240    0.1767 N.pl3     1 ACP        -0.4412
     23 C8         -1.0660    2.5608    0.3999 C.ar      1 ACP         0.1936
     24 N7         -1.5852    3.6333   -0.2221 N.2       1 ACP        -0.2746
     25 C5         -0.4682    4.1996   -0.7771 C.ar      1 ACP        -0.1386
     26 C6         -0.5216    5.4476   -1.5899 C.ar      1 ACP         0.4778
     27 N6         -1.6813    6.0510   -1.7982 N.pl3     1 ACP        -0.8290
     28 N1          0.6621    5.8575   -2.0523 N.pl3     1 ACP        -0.6985
     29 C2          1.8795    5.1301   -1.7717 C.ar      1 ACP         0.6179
     30 N3          1.9458    4.0434   -1.0670 N.ar      1 ACP        -0.5105
     31 C4          0.7388    3.6199   -0.5917 C.ar      1 ACP         0.2753
     32 HOG2        4.9756   -3.1969   -8.7367 H         1 ACP         0.4487
     33 HOG3        4.9394   -5.8190   -7.5628 H         1 ACP         0.4487
     34 H3B1        4.8171   -3.8000   -4.2923 H         1 ACP         0.1088
     35 H3B2        6.2227   -3.2606   -5.2063 H         1 ACP         0.1088
     36 H5'1        2.8430    0.3138   -2.6391 H         1 ACP         0.0327
     37 H5'2        1.2126   -0.0907   -2.0421 H         1 ACP         0.0327
     38 H4'         3.8046   -0.1390   -0.4011 H         1 ACP         0.1275
     39 H3'         1.6787   -1.7627    0.2719 H         1 ACP         0.0637
     40 HO3'        2.2231   -1.2979    2.3952 H         1 ACP         0.4127
     41 H2'         0.0002   -0.0084   -0.0014 H         1 ACP         0.0692
     42 HO2'       -0.1554   -0.9852    2.0577 H         1 ACP         0.4431
     43 H1'         1.7718    1.9211    1.6015 H         1 ACP         0.1199
     44 H8         -1.7235    1.8833    0.9537 H         1 ACP         0.2941
     45 HN61       -2.5296    5.6672   -1.4072 H         1 ACP         0.4754
     46 HN62       -1.7205    6.8969   -2.3483 H         1 ACP         0.4754
     47 H2          2.7750    5.5878   -2.2190 H         1 ACP         0.0886
     48 H48         0.6808    6.7046   -2.6128 H         1 ACP         0.4707
@<TRIPOS>BOND
     1    1    2 2
     2    1    3 1
     3    1    4 1
     4    1    8 1
     5    3   32 1
     6    4   33 1
     7    5    6 2
     8    5    7 1
     9    5    8 1
    10    5   12 1
    11    8   34 1
    12    8   35 1
    13    9   10 2
    14    9   11 1
    15    9   12 1
    16    9   13 1
    17   13   14 1
    18   14   15 1
    19   14   36 1
    20   14   37 1
    21   15   16 1
    22   15   17 1
    23   15   38 1
    24   16   21 1
    25   17   18 1
    26   17   19 1
    27   17   39 1
    28   18   40 1
    29   19   20 1
    30   19   21 1
    31   19   41 1
    32   20   42 1
    33   21   22 1
    34   21   43 1
    35   22   23 ar
    36   22   31 ar
    37   23   24 ar
    38   23   44 1
    39   24   25 ar
    40   25   26 ar
    41   25   31 ar
    42   26   27 1
    43   26   28 ar
    44   27   45 1
    45   27   46 1
    46   28   29 ar
    47   28   48 1
    48   29   30 ar
    49   29   47 1
    50   30   31 ar
@<TRIPOS>SUBSTRUCTURE
     1 ACP         1 GROUP 0 A     ****
@<TRIPOS>MOLECULE
[[5-(6-amino-1,8-dihydropurine-6,8-diylium-7-id-9-yl)-3,4-dihydroxy-tetrahydrofuran-2-yl]methoxy-oxido-phosphoryl]oxy-(phosphonomethyl)phosphinate
   48    50     1     0     0
SMALL
USER_CHARGES

@<TRIPOS>ATOM
      1 PG         -3.7001   -6.8818    3.6939 P.3       1 ACP         1.6558
      2 O1G        -3.3185   -5.6280    2.9661 O.2       1 ACP        -0.9020
      3 O2G        -3.6080   -8.2424    2.8276 O.3       1 ACP        -0.8036
      4 O3G        -5.2032   -6.9094    4.2852 O.3       1 ACP        -0.8036
      5 PB         -0.8530   -7.5067    5.0480 P.3       1 ACP         1.4945
      6 O1B        -0.6174   -8.6893    4.1372 O.co2     1 ACP        -0.8481
      7 O2B        -0.3174   -7.4561    6.4601 O.co2     1 ACP        -0.8481
      8 C3B        -2.6812   -7.2428    5.1420 C.3       1 ACP        -0.6636
      9 PA         -0.5283   -4.5720    4.7510 P.3       1 ACP         1.6023
     10 O1A         0.4835   -4.3793    5.8599 O.co2     1 ACP        -0.8673
     11 O2A        -1.9777   -4.1878    4.9548 O.co2     1 ACP        -0.8673
     12 O3A        -0.4709   -6.1295    4.2627 O.3       1 ACP        -0.8150
     13 O5'         0.0100   -3.8402    3.3910 O.3       1 ACP        -0.5522
     14 C5'        -0.7840   -3.8935    2.2172 C.3       1 ACP         0.2181
     15 C4'        -0.0724   -3.1466    1.1027 C.3       1 ACP         0.0915
     16 O4'        -0.8674   -3.1929   -0.0945 O.3       1 ACP        -0.3675
     17 C3'         0.1338   -1.6715    1.4027 C.3       1 ACP         0.0748
     18 O3'         1.2893   -1.4445    2.1808 O.3       1 ACP        -0.5646
     19 C2'         0.2158   -1.0724    0.0128 C.3       1 ACP         0.0804
     20 O2'         1.5141   -1.2448   -0.5513 O.3       1 ACP        -0.5882
     21 C1'        -0.7897   -1.9176   -0.7583 C.3       1 ACP         0.3809
     22 N9         -2.1040   -1.3333   -0.7704 N.pl3     1 ACP        -0.4412
     23 C8         -3.2124   -1.5345    0.2719 C.ar      1 ACP         0.1936
     24 N7         -4.2964   -0.8234   -0.0828 N.2       1 ACP        -0.2746
     25 C5         -3.8754   -0.2386   -1.2478 C.ar      1 ACP        -0.1386
     26 C6         -4.7432    0.6719   -2.0470 C.ar      1 ACP         0.4778
     27 N6         -5.9725    0.9415   -1.6366 N.pl3     1 ACP        -0.8290
     28 N1         -4.1703    1.1517   -3.1536 N.pl3     1 ACP        -0.6985
     29 C2         -2.8174    0.7994   -3.5215 C.ar      1 ACP         0.6179
     30 N3         -2.0475    0.0097   -2.8393 N.ar      1 ACP        -0.5105
     31 C4         -2.6278   -0.4836   -1.7071 C.ar      1 ACP         0.2753
     32 HOG2       -4.1538   -8.3275    2.0172 H         1 ACP         0.4487
     33 HOG3       -5.9589   -6.8188    3.6667 H         1 ACP         0.4487
     34 H3B1       -2.8241   -6.4265    5.8591 H         1 ACP         0.1088
     35 H3B2       -3.0909   -8.1485    5.6034 H         1 ACP         0.1088
     36 H5'1       -0.9357   -4.9414    1.9397 H         1 ACP         0.0327
     37 H5'2       -1.7557   -3.4349    2.4259 H         1 ACP         0.0327
     38 H4'         0.8883   -3.6447    0.8783 H         1 ACP         0.1275
     39 H3'        -0.7368   -1.2359    1.9871 H         1 ACP         0.0637
     40 HO3'        1.1625   -1.9325    3.0084 H         1 ACP         0.4127
     41 H2'        -0.0343   -0.0280    0.0196 H         1 ACP         0.0692
     42 HO2'        2.1443   -0.7955    0.0378 H         1 ACP         0.4431
     43 H1'        -0.5175   -2.1046   -1.7826 H         1 ACP         0.1199
     44 H8         -3.2310   -2.1319    1.1889 H         1 ACP         0.2941
     45 HN61       -6.3230    0.5316   -0.7829 H         1 ACP         0.4754
     46 HN62       -6.5628    1.5584   -2.1760 H         1 ACP         0.4754
     47 H2         -2.4822    1.2710   -4.4579 H         1 ACP         0.0886
     48 H48        -4.7200    1.7780   -3.7346 H         1 ACP         0.4707
@<TRIPOS>BOND
     1    1    2 2
     2    1    3 1
     3    1    4 1
     4    1    8 1
     5    3   32 1
     6    4   33 1
     7    5    6 2
     8    5    7 1
     9    5    8 1
    10    5   12 1
    11    8   34 1
    12    8   35 1
    13    9   10 2
    14    9   11 1
    15    9   12 1
    16    9   13 1
    17   13   14 1
    18   14   15 1
    19   14   36 1
    20   14   37 1
    21   15   16 1
    22   15   17 1
    23   15   38 1
    24   16   21 1
    25   17   18 1
    26   17   19 1
    27   17   39 1
    28   18   40 1
    29   19   20 1
    30   19   21 1
    31   19   41 1
    32   20   42 1
    33   21   22 1
    34   21   43 1
    35   22   23 ar
    36   22   31 ar
    37   23   24 ar
    38   23   44 1
    39   24   25 ar
    40   25   26 ar
    41   25   31 ar
    42   26   27 1
    43   26   28 ar
    44   27   45 1
    45   27   46 1
    46   28   29 ar
    47   28   48 1
    48   29   30 ar
    49   29   47 1
    50   30   31 ar
@<TRIPOS>SUBSTRUCTURE
     1 ACP         1 GROUP 0 A     ****
@<TRIPOS>MOLECULE
[[5-(6-amino-1,8-dihydropurine-6,8-diylium-7-id-9-yl)-3,4-dihydroxy-tetrahydrofuran-2-yl]methoxy-oxido-phosphoryl]oxy-(phosphonomethyl)phosphinate
   48    50     1     0     0
SMALL
USER_CHARGES

@<TRIPOS>ATOM
      1 PG         -0.4237   -2.3802   -6.4064 P.3       1 ACP         1.6558
      2 O1G        -0.7965   -0.9349   -6.2660 O.2       1 ACP        -0.9020
      3 O2G         0.2811   -2.7826   -7.8033 O.3       1 ACP        -0.8036
      4 O3G        -1.6483   -3.4266   -6.2839 O.3       1 ACP        -0.8036
      5 PB          2.4407   -2.2547   -4.9541 P.3       1 ACP         1.4945
      6 O1B         3.1738   -2.4437   -6.2620 O.co2     1 ACP        -0.8481
      7 O2B         2.9866   -2.7672   -3.6415 O.co2     1 ACP        -0.8481
      8 C3B         0.7489   -2.9717   -5.1652 C.3       1 ACP        -0.6636
      9 PA          2.8587    0.6155   -4.3269 P.3       1 ACP         1.6023
     10 O1A         1.9171    1.7961   -4.2263 O.co2     1 ACP        -0.8673
     11 O2A         4.1093    0.6971   -5.1750 O.co2     1 ACP        -0.8673
     12 O3A         2.0007   -0.6924   -4.7968 O.3       1 ACP        -0.8150
     13 O5'         3.2885    0.1337   -2.8242 O.3       1 ACP        -0.5522
     14 C5'         2.2816   -0.2918   -1.9206 C.3       1 ACP         0.2181
     15 C4'         2.7248    0.0226   -0.4980 C.3       1 ACP         0.0915
     16 O4'         2.4697    1.4219   -0.2462 O.3       1 ACP        -0.3675
     17 C3'         1.9404   -0.7419    0.5596 C.3       1 ACP         0.0748
     18 O3'         2.7418   -0.8086    1.7389 O.3       1 ACP        -0.5646
     19 C2'         0.7477    0.1630    0.7858 C.3       1 ACP         0.0804
     20 O2'         0.1373   -0.0577    2.0407 O.3       1 ACP        -0.5882
     21 C1'         1.3733    1.5427    0.6747 C.3       1 ACP         0.3809
     22 N9          0.4520    2.5240    0.1767 N.pl3     1 ACP        -0.4412
     23 C8         -1.0660    2.5608    0.3999 C.ar      1 ACP         0.1936
     24 N7         -1.5852    3.6333   -0.2221 N.2       1 ACP        -0.2746
     25 C5         -0.4682    4.1996   -0.7771 C.ar      1 ACP        -0.1386
     26 C6         -0.5216    5.4476   -1.5899 C.ar      1 ACP         0.4778
     27 N6         -1.6813    6.0510   -1.7982 N.pl3     1 ACP        -0.8290
     28 N1          0.6621    5.8575   -2.0523 N.pl3     1 ACP        -0.6985
     29 C2          1.8795    5.1301   -1.7717 C.ar      1 ACP         0.6179
     30 N3          1.9458    4.0434   -1.0670 N.ar      1 ACP        -0.5105
     31 C4          0.7388    3.6199   -0.5917 C.ar      1 ACP         0.2753
     32 HOG2       -0.2076   -2.6370   -8.6412 H         1 ACP         0.4487
     33 HOG3       -2.3910   -3.3656   -6.9216 H         1 ACP         0.4487
     34 H3B1        0.2669   -2.8819   -4.1851 H         1 ACP         0.1088
     35 H3B2        0.8984   -4.0414   -5.3507 H         1 ACP         0.1088
     36 H5'1        1.3501    0.2325   -2.1561 H         1 ACP         0.0327
     37 H5'2        2.1268   -1.3683   -2.0445 H         1 ACP         0.0327
     38 H4'         3.8046   -0.1390   -0.4011 H         1 ACP         0.1275
     39 H3'         1.6787   -1.7627    0.2719 H         1 ACP         0.0637
     40 HO3'        2.2231   -1.2979    2.3952 H         1 ACP         0.4127
     41 H2'         0.0002   -0.0084   -0.0014 H         1 ACP         0.0692
     42 HO2'       -0.1554   -0.9852    2.0577 H         1 ACP         0.4431
     43 H1'         1.7718    1.9211    1.6015 H         1 ACP         0.1199
     44 H8         -1.7235    1.8833    0.9537 H         1 ACP         0.2941
     45 HN61       -2.5296    5.6672   -1.4072 H         1 ACP         0.4754
     46 HN62       -1.7205    6.8969   -2.3483 H         1 ACP         0.4754
     47 H2          2.7750    5.5878   -2.2190 H         1 ACP         0.0886
     48 H48         0.6808    6.7046   -2.6128 H         1 ACP         0.4707
@<TRIPOS>BOND
     1    1    2 2
     2    1    3 1
     3    1    4 1
     4    1    8 1
     5    3   32 1
     6    4   33 1
     7    5    6 2
     8    5    7 1
     9    5    8 1
    10    5   12 1
    11    8   34 1
    12    8   35 1
    13    9   10 2
    14    9   11 1
    15    9   12 1
    16    9   13 1
    17   13   14 1
    18   14   15 1
    19   14   36 1
    20   14   37 1
    21   15   16 1
    22   15   17 1
    23   15   38 1
    24   16   21 1
    25   17   18 1
    26   17   19 1
    27   17   39 1
    28   18   40 1
    29   19   20 1
    30   19   21 1
    31   19   41 1
    32   20   42 1
    33   21   22 1
    34   21   43 1
    35   22   23 ar
    36   22   31 ar
    37   23   24 ar
    38   23   44 1
    39   24   25 ar
    40   25   26 ar
    41   25   31 ar
    42   26   27 1
    43   26   28 ar
    44   27   45 1
    45   27   46 1
    46   28   29 ar
    47   28   48 1
    48   29   30 ar
    49   29   47 1
    50   30   31 ar
@<TRIPOS>SUBSTRUCTURE
     1 ACP         1 GROUP 0 A     ****
@<TRIPOS>MOLECULE
[[5-(6-amino-1,8-dihydropurine-6,8-diylium-7-id-9-yl)-3,4-dihydroxy-tetrahydrofuran-2-yl]methoxy-oxido-phosphoryl]oxy-(phosphonomethyl)phosphinate
   48    50     1     0     0
SMALL
USER_CHARGES

@<TRIPOS>ATOM
      1 PG          0.2124   -2.1145   -7.2660 P.3       1 ACP         1.6558
      2 O1G        -1.0414   -2.7664   -7.7662 O.2       1 ACP        -0.9020
      3 O2G         0.0711   -0.5564   -6.8628 O.3       1 ACP        -0.8036
      4 O3G         1.4584   -2.1289   -8.2940 O.3       1 ACP        -0.8036
      5 PB          2.4407   -2.2547   -4.9541 P.3       1 ACP         1.4945
      6 O1B         3.5601   -2.3649   -5.9633 O.co2     1 ACP        -0.8481
      7 O2B         2.5150   -2.9050   -3.5921 O.co2     1 ACP        -0.8481
      8 C3B         0.9005   -2.8677   -5.7744 C.3       1 ACP        -0.6636
      9 PA          2.8587    0.6155   -4.3269 P.3       1 ACP         1.6023
     10 O1A         1.9171    1.7961   -4.2263 O.co2     1 ACP        -0.8673
     11 O2A         4.1093    0.6971   -5.1750 O.co2     1 ACP        -0.8673
     12 O3A         2.0007   -0.6924   -4.7968 O.3       1 ACP        -0.8150
     13 O5'         3.2885    0.1337   -2.8242 O.3       1 ACP        -0.5522
     14 C5'         2.2816   -0.2918   -1.9206 C.3       1 ACP         0.2181
     15 C4'         2.7248    0.0226   -0.4980 C.3       1 ACP         0.0915
     16 O4'         2.4697    1.4219   -0.2462 O.3       1 ACP        -0.3675
     17 C3'         1.9404   -0.7419    0.5596 C.3       1 ACP         0.0748
     18 O3'         2.7418   -0.8086    1.7389 O.3       1 ACP        -0.5646
     19 C2'         0.7477    0.1630    0.7858 C.3       1 ACP         0.0804
     20 O2'         0.1373   -0.0577    2.0407 O.3       1 ACP        -0.5882
     21 C1'         1.3733    1.5427    0.6747 C.3       1 ACP         0.3809
     22 N9          0.4520    2.5240    0.1767 N.pl3     1 ACP        -0.4412
     23 C8          0.5793    3.3338   -1.1209 C.ar      1 ACP         0.1936
     24 N7         -0.4807    4.1508   -1.2458 N.2       1 ACP        -0.2746
     25 C5         -1.1921    3.8572   -0.1126 C.ar      1 ACP        -0.1386
     26 C6         -2.4855    4.5203    0.2163 C.ar      1 ACP         0.4778
     27 N6         -2.9873    5.4319   -0.6020 N.pl3     1 ACP        -0.8290
     28 N1         -3.0414    4.1119    1.3596 N.pl3     1 ACP        -0.6985
     29 C2         -2.4169    3.1071    2.1904 C.ar      1 ACP         0.6179
     30 N3         -1.2928    2.5191    1.9210 N.ar      1 ACP        -0.5105
     31 C4         -0.7202    2.9326    0.7534 C.ar      1 ACP         0.2753
     32 HOG2       -0.2102    0.0878   -7.5469 H         1 ACP         0.4487
     33 HOG3        1.3597   -1.6920   -9.1666 H         1 ACP         0.4487
     34 H3B1        0.1244   -2.8399   -5.0013 H         1 ACP         0.1088
     35 H3B2        1.0842   -3.9233   -6.0048 H         1 ACP         0.1088
     36 H5'1        1.3501    0.2325   -2.1561 H         1 ACP         0.0327
     37 H5'2        2.1268   -1.3683   -2.0445 H         1 ACP         0.0327
     38 H4'         3.8046   -0.1390   -0.4011 H         1 ACP         0.1275
     39 H3'         1.6787   -1.7627    0.2719 H         1 ACP         0.0637
     40 HO3'        2.2231   -1.2979    2.3952 H         1 ACP         0.4127
     41 H2'         0.0002   -0.0084   -0.0014 H         1 ACP         0.0692
     42 HO2'       -0.1554   -0.9852    2.0577 H         1 ACP         0.4431
     43 H1'         1.7718    1.9211    1.6015 H         1 ACP         0.1199
     44 H8          1.3565    3.3309   -1.8916 H         1 ACP         0.2941
     45 HN61       -2.4952    5.6785   -1.4487 H         1 ACP         0.4754
     46 HN62       -3.8637    5.8828   -0.3819 H         1 ACP         0.4754
     47 H2         -2.9911    2.8734    3.1000 H         1 ACP         0.0886
     48 H48        -3.9253    4.5332    1.6302 H         1 ACP         0.4707
@<TRIPOS>BOND
     1    1    2 2
     2    1    3 1
     3    1    4 1
     4    1    8 1
     5    3   32 1
     6    4   33 1
     7    5    6 2
     8    5    7 1
     9    5    8 1
    10    5   12 1
    11    8   34 1
    12    8   35 1
    13    9   10 2
    14    9   11 1
    15    9   12 1
    16    9   13 1
    17   13   14 1
    18   14   15 1
    19   14   36 1
    20   14   37 1
    21   15   16 1
    22   15   17 1
    23   15   38 1
    24   16   21 1
    25   17   18 1
    26   17   19 1
    27   17   39 1
    28   18   40 1
    29   19   20 1
    30   19   21 1
    31   19   41 1
    32   20   42 1
    33   21   22 1
    34   21   43 1
    35   22   23 ar
    36   22   31 ar
    37   23   24 ar
    38   23   44 1
    39   24   25 ar
    40   25   26 ar
    41   25   31 ar
    42   26   27 1
    43   26   28 ar
    44   27   45 1
    45   27   46 1
    46   28   29 ar
    47   28   48 1
    48   29   30 ar
    49   29   47 1
    50   30   31 ar
@<TRIPOS>SUBSTRUCTURE
     1 ACP         1 GROUP 0 A     ****
@<TRIPOS>MOLECULE
[[5-(6-amino-1,8-dihydropurine-6,8-diylium-7-id-9-yl)-3,4-dihydroxy-tetrahydrofuran-2-yl]methoxy-oxido-phosphoryl]oxy-(phosphonomethyl)phosphinate
   48    50     1     0     0
SMALL
USER_CHARGES

@<TRIPOS>ATOM
      1 PG          2.2443   -4.7289   -3.4919 P.3       1 ACP         1.6558
      2 O1G         2.5110   -6.0646   -2.8657 O.2       1 ACP        -0.9020
      3 O2G         2.3708   -3.4598   -2.5001 O.3       1 ACP        -0.8036
      4 O3G         0.7794   -4.5520   -4.1495 O.3       1 ACP        -0.8036
      5 PB          3.2448   -2.7178   -5.7907 P.3       1 ACP         1.4945
      6 O1B         1.8725   -2.6686   -6.4217 O.co2     1 ACP        -0.8481
      7 O2B         4.5120   -2.5833   -6.6030 O.co2     1 ACP        -0.8481
      8 C3B         3.3590   -4.3061   -4.8499 C.3       1 ACP        -0.6636
      9 PA          3.0640   -0.0874   -4.4291 P.3       1 ACP         1.6023
     10 O1A         1.6224    0.2104   -4.7809 O.co2     1 ACP        -0.8673
     11 O2A         4.1945    0.5982   -5.1653 O.co2     1 ACP        -0.8673
     12 O3A         3.2953   -1.7018   -4.5162 O.3       1 ACP        -0.8150
     13 O5'         3.2885    0.1337   -2.8242 O.3       1 ACP        -0.5522
     14 C5'         2.2816   -0.2918   -1.9206 C.3       1 ACP         0.2181
     15 C4'         2.7248    0.0226   -0.4980 C.3       1 ACP         0.0915
     16 O4'         2.4697    1.4219   -0.2462 O.3       1 ACP        -0.3675
     17 C3'         1.9404   -0.7419    0.5596 C.3       1 ACP         0.0748
     18 O3'         2.7418   -0.8086    1.7389 O.3       1 ACP        -0.5646
     19 C2'         0.7477    0.1630    0.7858 C.3       1 ACP         0.0804
     20 O2'         0.1373   -0.0577    2.0407 O.3       1 ACP        -0.5882
     21 C1'         1.3733    1.5427    0.6747 C.3       1 ACP         0.3809
     22 N9          0.4520    2.5240    0.1767 N.pl3     1 ACP        -0.4412
     23 C8          0.5793    3.3338   -1.1209 C.ar      1 ACP         0.1936
     24 N7         -0.4807    4.1508   -1.2458 N.2       1 ACP        -0.2746
     25 C5         -1.1921    3.8572   -0.1126 C.ar      1 ACP        -0.1386
     26 C6         -2.4855    4.5203    0.2163 C.ar      1 ACP         0.4778
     27 N6         -2.9873    5.4319   -0.6020 N.pl3     1 ACP        -0.8290
     28 N1         -3.0414    4.1119    1.3596 N.pl3     1 ACP        -0.6985
     29 C2         -2.4169    3.1071    2.1904 C.ar      1 ACP         0.6179
     30 N3         -1.2928    2.5191    1.9210 N.ar      1 ACP        -0.5105
     31 C4         -0.7202    2.9326    0.7534 C.ar      1 ACP         0.2753
     32 HOG2        1.7883   -3.4126   -1.7123 H         1 ACP         0.4487
     33 HOG3       -0.0124   -4.6489   -3.5789 H         1 ACP         0.4487
     34 H3B1        4.3831   -4.3452   -4.4619 H         1 ACP         0.1088
     35 H3B2        3.2698   -5.1032   -5.5968 H         1 ACP         0.1088
     36 H5'1        1.3501    0.2325   -2.1561 H         1 ACP         0.0327
     37 H5'2        2.1268   -1.3683   -2.0445 H         1 ACP         0.0327
     38 H4'         3.8046   -0.1390   -0.4011 H         1 ACP         0.1275
     39 H3'         1.6787   -1.7627    0.2719 H         1 ACP         0.0637
     40 HO3'        2.2231   -1.2979    2.3952 H         1 ACP         0.4127
     41 H2'         0.0002   -0.0084   -0.0014 H         1 ACP         0.0692
     42 HO2'        0.8091    0.1203    2.7213 H         1 ACP         0.4431
     43 H1'         1.7718    1.9211    1.6015 H         1 ACP         0.1199
     44 H8          1.3565    3.3309   -1.8916 H         1 ACP         0.2941
     45 HN61       -2.4952    5.6785   -1.4487 H         1 ACP         0.4754
     46 HN62       -3.8637    5.8828   -0.3819 H         1 ACP         0.4754
     47 H2         -2.9911    2.8734    3.1000 H         1 ACP         0.0886
     48 H48        -3.9253    4.5332    1.6302 H         1 ACP         0.4707
@<TRIPOS>BOND
     1    1    2 2
     2    1    3 1
     3    1    4 1
     4    1    8 1
     5    3   32 1
     6    4   33 1
     7    5    6 2
     8    5    7 1
     9    5    8 1
    10    5   12 1
    11    8   34 1
    12    8   35 1
    13    9   10 2
    14    9   11 1
    15    9   12 1
    16    9   13 1
    17   13   14 1
    18   14   15 1
    19   14   36 1
    20   14   37 1
    21   15   16 1
    22   15   17 1
    23   15   38 1
    24   16   21 1
    25   17   18 1
    26   17   19 1
    27   17   39 1
    28   18   40 1
    29   19   20 1
    30   19   21 1
    31   19   41 1
    32   20   42 1
    33   21   22 1
    34   21   43 1
    35   22   23 ar
    36   22   31 ar
    37   23   24 ar
    38   23   44 1
    39   24   25 ar
    40   25   26 ar
    41   25   31 ar
    42   26   27 1
    43   26   28 ar
    44   27   45 1
    45   27   46 1
    46   28   29 ar
    47   28   48 1
    48   29   30 ar
    49   29   47 1
    50   30   31 ar
@<TRIPOS>SUBSTRUCTURE
     1 ACP         1 GROUP 0 A     ****
@<TRIPOS>MOLECULE
[[5-(6-amino-1,8-dihydropurine-6,8-diylium-7-id-9-yl)-3,4-dihydroxy-tetrahydrofuran-2-yl]methoxy-oxido-phosphoryl]oxy-(phosphonomethyl)phosphinate
   48    50     1     0     0
SMALL
USER_CHARGES

@<TRIPOS>ATOM
      1 PG          2.9855    0.4934   -8.1000 P.3       1 ACP         1.6558
      2 O1G         1.7936    0.1613   -8.9464 O.2       1 ACP        -0.9020
      3 O2G         4.1921    1.2471   -8.8657 O.3       1 ACP        -0.8036
      4 O3G         3.7106   -0.7685   -7.3988 O.3       1 ACP        -0.8036
      5 PB          1.4317    1.1584   -5.3662 P.3       1 ACP         1.4945
      6 O1B         0.0838    0.9533   -6.0178 O.co2     1 ACP        -0.8481
      7 O2B         1.6425    2.1443   -4.2405 O.co2     1 ACP        -0.8481
      8 C3B         2.6295    1.5894   -6.7080 C.3       1 ACP        -0.6636
      9 PA          3.4810   -0.6670   -4.2373 P.3       1 ACP         1.6023
     10 O1A         4.6070   -0.0329   -5.0251 O.co2     1 ACP        -0.8673
     11 O2A         3.4859   -2.1517   -3.9447 O.co2     1 ACP        -0.8673
     12 O3A         2.0662   -0.2878   -4.9597 O.3       1 ACP        -0.8150
     13 O5'         3.2885    0.1337   -2.8242 O.3       1 ACP        -0.5522
     14 C5'         2.2816   -0.2918   -1.9206 C.3       1 ACP         0.2181
     15 C4'         2.7248    0.0226   -0.4980 C.3       1 ACP         0.0915
     16 O4'         2.4697    1.4219   -0.2462 O.3       1 ACP        -0.3675
     17 C3'         1.9404   -0.7419    0.5596 C.3       1 ACP         0.0748
     18 O3'         2.7418   -0.8086    1.7389 O.3       1 ACP        -0.5646
     19 C2'         0.7477    0.1630    0.7858 C.3       1 ACP         0.0804
     20 O2'         0.1373   -0.0577    2.0407 O.3       1 ACP        -0.5882
     21 C1'         1.3733    1.5427    0.6747 C.3       1 ACP         0.3809
     22 N9          0.4520    2.5240    0.1767 N.pl3     1 ACP        -0.4412
     23 C8         -0.3054    2.4845   -1.1576 C.ar      1 ACP         0.1936
     24 N7         -1.0755    3.5806   -1.2691 N.2       1 ACP        -0.2746
     25 C5         -0.8043    4.2306   -0.0942 C.ar      1 ACP        -0.1386
     26 C6         -1.4324    5.5335    0.2646 C.ar      1 ACP         0.4778
     27 N6         -2.2885    6.1054   -0.5675 N.pl3     1 ACP        -0.8290
     28 N1         -1.0537    6.0229    1.4478 N.pl3     1 ACP        -0.6985
     29 C2         -0.1096    5.3242    2.2908 C.ar      1 ACP         0.6179
     30 N3          0.4468    4.1904    1.9960 N.ar      1 ACP        -0.5105
     31 C4          0.0631    3.6855    0.7877 C.ar      1 ACP         0.2753
     32 HOG2        4.6247    0.8015   -9.6250 H         1 ACP         0.4487
     33 HOG3        4.0795   -1.4794   -7.9650 H         1 ACP         0.4487
     34 H3B1        3.5778    1.7979   -6.2000 H         1 ACP         0.1088
     35 H3B2        2.2777    2.5379   -7.1297 H         1 ACP         0.1088
     36 H5'1        1.3501    0.2325   -2.1561 H         1 ACP         0.0327
     37 H5'2        2.1268   -1.3683   -2.0445 H         1 ACP         0.0327
     38 H4'         3.8046   -0.1390   -0.4011 H         1 ACP         0.1275
     39 H3'         1.6787   -1.7627    0.2719 H         1 ACP         0.0637
     40 HO3'        2.2231   -1.2979    2.3952 H         1 ACP         0.4127
     41 H2'         0.0002   -0.0084   -0.0014 H         1 ACP         0.0692
     42 HO2'       -0.6132    0.5577    2.1063 H         1 ACP         0.4431
     43 H1'         1.7718    1.9211    1.6015 H         1 ACP         0.1199
     44 H8         -0.2991    1.7413   -1.9611 H         1 ACP         0.2941
     45 HN61       -2.5167    5.6603   -1.4447 H         1 ACP         0.4754
     46 HN62       -2.7159    6.9882   -0.3270 H         1 ACP         0.4754
     47 H2          0.1059    5.8491    3.2340 H         1 ACP         0.0886
     48 H48        -1.4532    6.9099    1.7401 H         1 ACP         0.4707
@<TRIPOS>BOND
     1    1    2 2
     2    1    3 1
     3    1    4 1
     4    1    8 1
     5    3   32 1
     6    4   33 1
     7    5    6 2
     8    5    7 1
     9    5    8 1
    10    5   12 1
    11    8   34 1
    12    8   35 1
    13    9   10 2
    14    9   11 1
    15    9   12 1
    16    9   13 1
    17   13   14 1
    18   14   15 1
    19   14   36 1
    20   14   37 1
    21   15   16 1
    22   15   17 1
    23   15   38 1
    24   16   21 1
    25   17   18 1
    26   17   19 1
    27   17   39 1
    28   18   40 1
    29   19   20 1
    30   19   21 1
    31   19   41 1
    32   20   42 1
    33   21   22 1
    34   21   43 1
    35   22   23 ar
    36   22   31 ar
    37   23   24 ar
    38   23   44 1
    39   24   25 ar
    40   25   26 ar
    41   25   31 ar
    42   26   27 1
    43   26   28 ar
    44   27   45 1
    45   27   46 1
    46   28   29 ar
    47   28   48 1
    48   29   30 ar
    49   29   47 1
    50   30   31 ar
@<TRIPOS>SUBSTRUCTURE
     1 ACP         1 GROUP 0 A     ****
@<TRIPOS>MOLECULE
[[5-(6-amino-1,8-dihydropurine-6,8-diylium-7-id-9-yl)-3,4-dihydroxy-tetrahydrofuran-2-yl]methoxy-oxido-phosphoryl]oxy-(phosphonomethyl)phosphinate
   48    50     1     0     0
SMALL
USER_CHARGES

@<TRIPOS>ATOM
      1 PG         -0.7031   -2.9225   -4.9433 P.3       1 ACP         1.6558
      2 O1G        -0.7338   -3.7803   -3.7143 O.2       1 ACP        -0.9020
      3 O2G        -1.0529   -1.3626   -4.7097 O.3       1 ACP        -0.8036
      4 O3G        -1.7140   -3.3656   -6.1229 O.3       1 ACP        -0.8036
      5 PB          2.4407   -2.2547   -4.9541 P.3       1 ACP         1.4945
      6 O1B         3.5601   -2.3649   -5.9633 O.co2     1 ACP        -0.8481
      7 O2B         2.5150   -2.9050   -3.5921 O.co2     1 ACP        -0.8481
      8 C3B         0.9005   -2.8677   -5.7744 C.3       1 ACP        -0.6636
      9 PA          2.8587    0.6155   -4.3269 P.3       1 ACP         1.6023
     10 O1A         1.9171    1.7961   -4.2263 O.co2     1 ACP        -0.8673
     11 O2A         4.1093    0.6971   -5.1750 O.co2     1 ACP        -0.8673
     12 O3A         2.0007   -0.6924   -4.7968 O.3       1 ACP        -0.8150
     13 O5'         3.2885    0.1337   -2.8242 O.3       1 ACP        -0.5522
     14 C5'         2.2816   -0.2918   -1.9206 C.3       1 ACP         0.2181
     15 C4'         2.7248    0.0226   -0.4980 C.3       1 ACP         0.0915
     16 O4'         2.4697    1.4219   -0.2462 O.3       1 ACP        -0.3675
     17 C3'         1.9404   -0.7419    0.5596 C.3       1 ACP         0.0748
     18 O3'         2.7418   -0.8086    1.7389 O.3       1 ACP        -0.5646
     19 C2'         0.7477    0.1630    0.7858 C.3       1 ACP         0.0804
     20 O2'         0.1373   -0.0577    2.0407 O.3       1 ACP        -0.5882
     21 C1'         1.3733    1.5427    0.6747 C.3       1 ACP         0.3809
     22 N9          0.4520    2.5240    0.1767 N.pl3     1 ACP        -0.4412
     23 C8         -1.0660    2.5608    0.3999 C.ar      1 ACP         0.1936
     24 N7         -1.5852    3.6333   -0.2221 N.2       1 ACP        -0.2746
     25 C5         -0.4682    4.1996   -0.7771 C.ar      1 ACP        -0.1386
     26 C6         -0.5216    5.4476   -1.5899 C.ar      1 ACP         0.4778
     27 N6         -1.6813    6.0510   -1.7982 N.pl3     1 ACP        -0.8290
     28 N1          0.6621    5.8575   -2.0523 N.pl3     1 ACP        -0.6985
     29 C2          1.8795    5.1301   -1.7717 C.ar      1 ACP         0.6179
     30 N3          1.9458    4.0434   -1.0670 N.ar      1 ACP        -0.5105
     31 C4          0.7388    3.6199   -0.5917 C.ar      1 ACP         0.2753
     32 HOG2       -1.9291   -1.1223   -4.3402 H         1 ACP         0.4487
     33 HOG3       -2.6772   -3.3892   -5.9393 H         1 ACP         0.4487
     34 H3B1        1.1323   -3.8835   -6.1139 H         1 ACP         0.1088
     35 H3B2        0.7745   -2.2518   -6.6722 H         1 ACP         0.1088
     36 H5'1        1.3501    0.2325   -2.1561 H         1 ACP         0.0327
     37 H5'2        2.1268   -1.3683   -2.0445 H         1 ACP         0.0327
     38 H4'         3.8046   -0.1390   -0.4011 H         1 ACP         0.1275
     39 H3'         1.6787   -1.7627    0.2719 H         1 ACP         0.0637
     40 HO3'        2.2231   -1.2979    2.3952 H         1 ACP         0.4127
     41 H2'         0.0002   -0.0084   -0.0014 H         1 ACP         0.0692
     42 HO2'       -0.1554   -0.9852    2.0577 H         1 ACP         0.4431
     43 H1'         1.7718    1.9211    1.6015 H         1 ACP         0.1199
     44 H8         -1.7235    1.8833    0.9537 H         1 ACP         0.2941
     45 HN61       -2.5296    5.6672   -1.4072 H         1 ACP         0.4754
     46 HN62       -1.7205    6.8969   -2.3483 H         1 ACP         0.4754
     47 H2          2.7750    5.5878   -2.2190 H         1 ACP         0.0886
     48 H48         0.6808    6.7046   -2.6128 H         1 ACP         0.4707
@<TRIPOS>BOND
     1    1    2 2
     2    1    3 1
     3    1    4 1
     4    1    8 1
     5    3   32 1
     6    4   33 1
     7    5    6 2
     8    5    7 1
     9    5    8 1
    10    5   12 1
    11    8   34 1
    12    8   35 1
    13    9   10 2
    14    9   11 1
    15    9   12 1
    16    9   13 1
    17   13   14 1
    18   14   15 1
    19   14   36 1
    20   14   37 1
    21   15   16 1
    22   15   17 1
    23   15   38 1
    24   16   21 1
    25   17   18 1
    26   17   19 1
    27   17   39 1
    28   18   40 1
    29   19   20 1
    30   19   21 1
    31   19   41 1
    32   20   42 1
    33   21   22 1
    34   21   43 1
    35   22   23 ar
    36   22   31 ar
    37   23   24 ar
    38   23   44 1
    39   24   25 ar
    40   25   26 ar
    41   25   31 ar
    42   26   27 1
    43   26   28 ar
    44   27   45 1
    45   27   46 1
    46   28   29 ar
    47   28   48 1
    48   29   30 ar
    49   29   47 1
    50   30   31 ar
@<TRIPOS>SUBSTRUCTURE
     1 ACP         1 GROUP 0 A     ****
@<TRIPOS>MOLECULE
[[5-(6-amino-1,8-dihydropurine-6,8-diylium-7-id-9-yl)-3,4-dihydroxy-tetrahydrofuran-2-yl]methoxy-oxido-phosphoryl]oxy-(phosphonomethyl)phosphinate
   48    50     1     0     0
SMALL
USER_CHARGES

@<TRIPOS>ATOM
      1 PG         -0.6493   -1.8282   -4.8640 P.3       1 ACP         1.6558
      2 O1G        -1.9707   -1.4970   -4.2383 O.2       1 ACP        -0.9020
      3 O2G        -0.5843   -3.2438   -5.6400 O.3       1 ACP        -0.8036
      4 O3G         0.6022   -1.8964   -3.8448 O.3       1 ACP        -0.8036
      5 PB          0.1937    1.1445   -5.7483 P.3       1 ACP         1.4945
      6 O1B        -1.1140    1.7209   -5.2572 O.co2     1 ACP        -0.8481
      7 O2B         0.9419    1.7280   -6.9244 O.co2     1 ACP        -0.8481
      8 C3B        -0.0986   -0.6449   -6.1137 C.3       1 ACP        -0.6636
      9 PA          2.7380    0.3741   -4.4295 P.3       1 ACP         1.6023
     10 O1A         3.6394    1.3278   -5.1833 O.co2     1 ACP        -0.8673
     11 O2A         2.7083   -1.0978   -4.7798 O.co2     1 ACP        -0.8673
     12 O3A         1.2106    0.9496   -4.4885 O.3       1 ACP        -0.8150
     13 O5'         3.0199    0.5139   -2.8245 O.3       1 ACP        -0.5522
     14 C5'         2.2816   -0.2918   -1.9206 C.3       1 ACP         0.2181
     15 C4'         2.7248    0.0226   -0.4980 C.3       1 ACP         0.0915
     16 O4'         2.4697    1.4219   -0.2462 O.3       1 ACP        -0.3675
     17 C3'         1.9404   -0.7419    0.5596 C.3       1 ACP         0.0748
     18 O3'         2.7418   -0.8086    1.7389 O.3       1 ACP        -0.5646
     19 C2'         0.7477    0.1630    0.7858 C.3       1 ACP         0.0804
     20 O2'         0.1373   -0.0577    2.0407 O.3       1 ACP        -0.5882
     21 C1'         1.3733    1.5427    0.6747 C.3       1 ACP         0.3809
     22 N9          0.4520    2.5240    0.1767 N.pl3     1 ACP        -0.4412
     23 C8          0.1798    2.8712   -1.2933 C.ar      1 ACP         0.1936
     24 N7         -0.7494    3.8400   -1.3610 N.2       1 ACP        -0.2746
     25 C5         -1.0173    4.0603   -0.0358 C.ar      1 ACP        -0.1386
     26 C6         -2.0105    5.0717    0.4241 C.ar      1 ACP         0.4778
     27 N6         -2.6723    5.7982   -0.4628 N.pl3     1 ACP        -0.8290
     28 N1         -2.1445    5.1522    1.7502 N.pl3     1 ACP        -0.6985
     29 C2         -1.3755    4.3143    2.6426 C.ar      1 ACP         0.6179
     30 N3         -0.5075    3.4292    2.2616 N.ar      1 ACP        -0.5105
     31 C4         -0.3667    3.3425    0.9070 C.ar      1 ACP         0.2753
     32 HOG2       -0.7621   -4.0685   -5.1397 H         1 ACP         0.4487
     33 HOG3        0.5804   -2.5435   -3.1081 H         1 ACP         0.4487
     34 H3B1        0.8440   -1.0179   -6.5302 H         1 ACP         0.1088
     35 H3B2       -0.8368   -0.6681   -6.9234 H         1 ACP         0.1088
     36 H5'1        1.2154   -0.0780   -2.0455 H         1 ACP         0.0327
     37 H5'2        2.4646   -1.3453   -2.1548 H         1 ACP         0.0327
     38 H4'         3.8046   -0.1390   -0.4011 H         1 ACP         0.1275
     39 H3'         1.6787   -1.7627    0.2719 H         1 ACP         0.0637
     40 HO3'        2.2231   -1.2979    2.3952 H         1 ACP         0.4127
     41 H2'         0.0002   -0.0084   -0.0014 H         1 ACP         0.0692
     42 HO2'       -0.6132    0.5577    2.1063 H         1 ACP         0.4431
     43 H1'         1.7718    1.9211    1.6015 H         1 ACP         0.1199
     44 H8          0.6089    2.4651   -2.2147 H         1 ACP         0.2941
     45 HN61       -2.5055    5.6680   -1.4503 H         1 ACP         0.4754
     46 HN62       -3.3462    6.4841   -0.1542 H         1 ACP         0.4754
     47 H2         -1.5932    4.4937    3.7066 H         1 ACP         0.0886
     48 H48        -2.8098    5.8270    2.1160 H         1 ACP         0.4707
@<TRIPOS>BOND
     1    1    2 2
     2    1    3 1
     3    1    4 1
     4    1    8 1
     5    3   32 1
     6    4   33 1
     7    5    6 2
     8    5    7 1
     9    5    8 1
    10    5   12 1
    11    8   34 1
    12    8   35 1
    13    9   10 2
    14    9   11 1
    15    9   12 1
    16    9   13 1
    17   13   14 1
    18   14   15 1
    19   14   36 1
    20   14   37 1
    21   15   16 1
    22   15   17 1
    23   15   38 1
    24   16   21 1
    25   17   18 1
    26   17   19 1
    27   17   39 1
    28   18   40 1
    29   19   20 1
    30   19   21 1
    31   19   41 1
    32   20   42 1
    33   21   22 1
    34   21   43 1
    35   22   23 ar
    36   22   31 ar
    37   23   24 ar
    38   23   44 1
    39   24   25 ar
    40   25   26 ar
    41   25   31 ar
    42   26   27 1
    43   26   28 ar
    44   27   45 1
    45   27   46 1
    46   28   29 ar
    47   28   48 1
    48   29   30 ar
    49   29   47 1
    50   30   31 ar
@<TRIPOS>SUBSTRUCTURE
     1 ACP         1 GROUP 0 A     ****
@<TRIPOS>MOLECULE
[[5-(6-amino-1,8-dihydropurine-6,8-diylium-7-id-9-yl)-3,4-dihydroxy-tetrahydrofuran-2-yl]methoxy-oxido-phosphoryl]oxy-(phosphonomethyl)phosphinate
   48    50     1     0     0
SMALL
USER_CHARGES

@<TRIPOS>ATOM
      1 PG         -1.4150    1.8494   -4.9384 P.3       1 ACP         1.6558
      2 O1G        -1.2743    0.3696   -5.1325 O.2       1 ACP        -0.9020
      3 O2G        -1.7831    2.3206   -3.4375 O.3       1 ACP        -0.8036
      4 O3G        -2.5434    2.5632   -5.8477 O.3       1 ACP        -0.8036
      5 PB          1.6835    2.5394   -4.4353 P.3       1 ACP         1.4945
      6 O1B         1.4407    2.8174   -2.9699 O.co2     1 ACP        -0.8481
      7 O2B         2.7510    3.2583   -5.2272 O.co2     1 ACP        -0.8481
      8 C3B         0.0772    2.7962   -5.3157 C.3       1 ACP        -0.6636
      9 PA          3.0640   -0.0874   -4.4291 P.3       1 ACP         1.6023
     10 O1A         4.2648    0.4427   -5.1825 O.co2     1 ACP        -0.8673
     11 O2A         2.5794   -1.5038   -4.6499 O.co2     1 ACP        -0.8673
     12 O3A         1.8101    0.9308   -4.6711 O.3       1 ACP        -0.8150
     13 O5'         3.2885    0.1337   -2.8242 O.3       1 ACP        -0.5522
     14 C5'         2.2816   -0.2918   -1.9206 C.3       1 ACP         0.2181
     15 C4'         2.7248    0.0226   -0.4980 C.3       1 ACP         0.0915
     16 O4'         2.4697    1.4219   -0.2462 O.3       1 ACP        -0.3675
     17 C3'         1.9404   -0.7419    0.5596 C.3       1 ACP         0.0748
     18 O3'         2.7418   -0.8086    1.7389 O.3       1 ACP        -0.5646
     19 C2'         0.7477    0.1630    0.7858 C.3       1 ACP         0.0804
     20 O2'         0.1373   -0.0577    2.0407 O.3       1 ACP        -0.5882
     21 C1'         1.3733    1.5427    0.6747 C.3       1 ACP         0.3809
     22 N9          0.4520    2.5240    0.1767 N.pl3     1 ACP        -0.4412
     23 C8         -0.7463    2.2774   -0.7501 C.ar      1 ACP         0.1936
     24 N7         -1.3714    3.4419   -0.9948 N.2       1 ACP        -0.2746
     25 C5         -0.6104    4.3223   -0.2723 C.ar      1 ACP        -0.1386
     26 C6         -0.9062    5.7820   -0.2194 C.ar      1 ACP         0.4778
     27 N6         -1.9385    6.2713   -0.8881 N.pl3     1 ACP        -0.8290
     28 N1         -0.0613    6.4906    0.5336 N.pl3     1 ACP        -0.6985
     29 C2          1.0416    5.8662    1.2291 C.ar      1 ACP         0.6179
     30 N3          1.3146    4.5989    1.1954 N.ar      1 ACP        -0.5105
     31 C4          0.4541    3.8697    0.4273 C.ar      1 ACP         0.2753
     32 HOG2       -2.6169    2.0022   -3.0307 H         1 ACP         0.4487
     33 HOG3       -3.4771    2.2765   -5.7583 H         1 ACP         0.4487
     34 H3B1        0.2989    2.6546   -6.3795 H         1 ACP         0.1088
     35 H3B2       -0.1726    3.8545   -5.1795 H         1 ACP         0.1088
     36 H5'1        1.3501    0.2325   -2.1561 H         1 ACP         0.0327
     37 H5'2        2.1268   -1.3683   -2.0445 H         1 ACP         0.0327
     38 H4'         3.8046   -0.1390   -0.4011 H         1 ACP         0.1275
     39 H3'         1.6787   -1.7627    0.2719 H         1 ACP         0.0637
     40 HO3'        2.2231   -1.2979    2.3952 H         1 ACP         0.4127
     41 H2'         0.0002   -0.0084   -0.0014 H         1 ACP         0.0692
     42 HO2'       -0.6132    0.5577    2.1063 H         1 ACP         0.4431
     43 H1'         1.7718    1.9211    1.6015 H         1 ACP         0.1199
     44 H8         -1.1244    1.3534   -1.1987 H         1 ACP         0.2941
     45 HN61       -2.5259    5.6573   -1.4336 H         1 ACP         0.4754
     46 HN62       -2.1416    7.2600   -0.8539 H         1 ACP         0.4754
     47 H2          1.6509    6.5764    1.8088 H         1 ACP         0.0886
     48 H48        -0.2190    7.4917    0.6033 H         1 ACP         0.4707
@<TRIPOS>BOND
     1    1    2 2
     2    1    3 1
     3    1    4 1
     4    1    8 1
     5    3   32 1
     6    4   33 1
     7    5    6 2
     8    5    7 1
     9    5    8 1
    10    5   12 1
    11    8   34 1
    12    8   35 1
    13    9   10 2
    14    9   11 1
    15    9   12 1
    16    9   13 1
    17   13   14 1
    18   14   15 1
    19   14   36 1
    20   14   37 1
    21   15   16 1
    22   15   17 1
    23   15   38 1
    24   16   21 1
    25   17   18 1
    26   17   19 1
    27   17   39 1
    28   18   40 1
    29   19   20 1
    30   19   21 1
    31   19   41 1
    32   20   42 1
    33   21   22 1
    34   21   43 1
    35   22   23 ar
    36   22   31 ar
    37   23   24 ar
    38   23   44 1
    39   24   25 ar
    40   25   26 ar
    41   25   31 ar
    42   26   27 1
    43   26   28 ar
    44   27   45 1
    45   27   46 1
    46   28   29 ar
    47   28   48 1
    48   29   30 ar
    49   29   47 1
    50   30   31 ar
@<TRIPOS>SUBSTRUCTURE
     1 ACP         1 GROUP 0 A     ****
@<TRIPOS>MOLECULE
[[5-(6-amino-1,8-dihydropurine-6,8-diylium-7-id-9-yl)-3,4-dihydroxy-tetrahydrofuran-2-yl]methoxy-oxido-phosphoryl]oxy-(phosphonomethyl)phosphinate
   48    50     1     0     0
SMALL
USER_CHARGES

@<TRIPOS>ATOM
      1 PG         -0.6606   -2.6533   -4.1727 P.3       1 ACP         1.6558
      2 O1G        -1.2619   -4.0033   -3.9215 O.2       1 ACP        -0.9020
      3 O2G         0.3175   -2.1021   -3.0109 O.3       1 ACP        -0.8036
      4 O3G        -1.7193   -1.4508   -4.3795 O.3       1 ACP        -0.8036
      5 PB          1.2216   -1.0095   -6.1939 P.3       1 ACP         1.4945
      6 O1B         0.1546    0.0352   -6.4253 O.co2     1 ACP        -0.8481
      7 O2B         2.2203   -1.3934   -7.2610 O.co2     1 ACP        -0.8481
      8 C3B         0.3652   -2.5585   -5.6574 C.3       1 ACP        -0.6636
      9 PA          2.8587    0.6155   -4.3269 P.3       1 ACP         1.6023
     10 O1A         1.9171    1.7961   -4.2263 O.co2     1 ACP        -0.8673
     11 O2A         4.1093    0.6971   -5.1750 O.co2     1 ACP        -0.8673
     12 O3A         2.0007   -0.6924   -4.7968 O.3       1 ACP        -0.8150
     13 O5'         3.2885    0.1337   -2.8242 O.3       1 ACP        -0.5522
     14 C5'         2.2816   -0.2918   -1.9206 C.3       1 ACP         0.2181
     15 C4'         2.7248    0.0226   -0.4980 C.3       1 ACP         0.0915
     16 O4'         2.4697    1.4219   -0.2462 O.3       1 ACP        -0.3675
     17 C3'         1.9404   -0.7419    0.5596 C.3       1 ACP         0.0748
     18 O3'         2.7418   -0.8086    1.7389 O.3       1 ACP        -0.5646
     19 C2'         0.7477    0.1630    0.7858 C.3       1 ACP         0.0804
     20 O2'         0.1373   -0.0577    2.0407 O.3       1 ACP        -0.5882
     21 C1'         1.3733    1.5427    0.6747 C.3       1 ACP         0.3809
     22 N9          0.4520    2.5240    0.1767 N.pl3     1 ACP        -0.4412
     23 C8          0.5793    3.3338   -1.1209 C.ar      1 ACP         0.1936
     24 N7         -0.4807    4.1508   -1.2458 N.2       1 ACP        -0.2746
     25 C5         -1.1921    3.8572   -0.1126 C.ar      1 ACP        -0.1386
     26 C6         -2.4855    4.5203    0.2163 C.ar      1 ACP         0.4778
     27 N6         -2.9873    5.4319   -0.6020 N.pl3     1 ACP        -0.8290
     28 N1         -3.0414    4.1119    1.3596 N.pl3     1 ACP        -0.6985
     29 C2         -2.4169    3.1071    2.1904 C.ar      1 ACP         0.6179
     30 N3         -1.2928    2.5191    1.9210 N.ar      1 ACP        -0.5105
     31 C4         -0.7202    2.9326    0.7534 C.ar      1 ACP         0.2753
     32 HOG2       -0.0419   -1.9774   -2.1068 H         1 ACP         0.4487
     33 HOG3       -2.3470   -1.2406   -3.6557 H         1 ACP         0.4487
     34 H3B1        1.1541   -3.3134   -5.5634 H         1 ACP         0.1088
     35 H3B2       -0.2656   -2.8593   -6.5016 H         1 ACP         0.1088
     36 H5'1        1.3501    0.2325   -2.1561 H         1 ACP         0.0327
     37 H5'2        2.1268   -1.3683   -2.0445 H         1 ACP         0.0327
     38 H4'         3.8046   -0.1390   -0.4011 H         1 ACP         0.1275
     39 H3'         1.6787   -1.7627    0.2719 H         1 ACP         0.0637
     40 HO3'        2.2231   -1.2979    2.3952 H         1 ACP         0.4127
     41 H2'         0.0002   -0.0084   -0.0014 H         1 ACP         0.0692
     42 HO2'       -0.6132    0.5577    2.1063 H         1 ACP         0.4431
     43 H1'         1.7718    1.9211    1.6015 H         1 ACP         0.1199
     44 H8          1.3565    3.3309   -1.8916 H         1 ACP         0.2941
     45 HN61       -2.4952    5.6785   -1.4487 H         1 ACP         0.4754
     46 HN62       -3.8637    5.8828   -0.3819 H         1 ACP         0.4754
     47 H2         -2.9911    2.8734    3.1000 H         1 ACP         0.0886
     48 H48        -3.9253    4.5332    1.6302 H         1 ACP         0.4707
@<TRIPOS>BOND
     1    1    2 2
     2    1    3 1
     3    1    4 1
     4    1    8 1
     5    3   32 1
     6    4   33 1
     7    5    6 2
     8    5    7 1
     9    5    8 1
    10    5   12 1
    11    8   34 1
    12    8   35 1
    13    9   10 2
    14    9   11 1
    15    9   12 1
    16    9   13 1
    17   13   14 1
    18   14   15 1
    19   14   36 1
    20   14   37 1
    21   15   16 1
    22   15   17 1
    23   15   38 1
    24   16   21 1
    25   17   18 1
    26   17   19 1
    27   17   39 1
    28   18   40 1
    29   19   20 1
    30   19   21 1
    31   19   41 1
    32   20   42 1
    33   21   22 1
    34   21   43 1
    35   22   23 ar
    36   22   31 ar
    37   23   24 ar
    38   23   44 1
    39   24   25 ar
    40   25   26 ar
    41   25   31 ar
    42   26   27 1
    43   26   28 ar
    44   27   45 1
    45   27   46 1
    46   28   29 ar
    47   28   48 1
    48   29   30 ar
    49   29   47 1
    50   30   31 ar
@<TRIPOS>SUBSTRUCTURE
     1 ACP         1 GROUP 0 A     ****
@<TRIPOS>MOLECULE
[[5-(6-amino-1,8-dihydropurine-6,8-diylium-7-id-9-yl)-3,4-dihydroxy-tetrahydrofuran-2-yl]methoxy-oxido-phosphoryl]oxy-(phosphonomethyl)phosphinate
   48    50     1     0     0
SMALL
USER_CHARGES

@<TRIPOS>ATOM
      1 PG         -2.9846   -5.3645    7.1966 P.3       1 ACP         1.6558
      2 O1G        -4.1118   -5.0202    6.2702 O.2       1 ACP        -0.9020
      3 O2G        -3.0063   -6.8682    7.7871 O.3       1 ACP        -0.8036
      4 O3G        -2.8654   -4.4403    8.5163 O.3       1 ACP        -0.8036
      5 PB         -0.8212   -6.2256    4.9812 P.3       1 ACP         1.4945
      6 O1B        -0.9312   -7.6841    5.3609 O.co2     1 ACP        -0.8481
      7 O2B         0.4633   -5.6210    4.4634 O.co2     1 ACP        -0.8481
      8 C3B        -1.3425   -5.2349    6.4535 C.3       1 ACP        -0.6636
      9 PA         -2.2659   -6.0657    2.3941 P.3       1 ACP         1.6023
     10 O1A        -3.5371   -5.3651    1.9652 O.co2     1 ACP        -0.8673
     11 O2A        -2.0598   -7.5360    2.1012 O.co2     1 ACP        -0.8673
     12 O3A        -2.0569   -5.8242    3.9959 O.3       1 ACP        -0.8150
     13 O5'        -0.9728   -5.2428    1.8236 O.3       1 ACP        -0.5522
     14 C5'        -0.7840   -3.8935    2.2172 C.3       1 ACP         0.2181
     15 C4'        -0.0724   -3.1466    1.1027 C.3       1 ACP         0.0915
     16 O4'        -0.8674   -3.1929   -0.0945 O.3       1 ACP        -0.3675
     17 C3'         0.1338   -1.6715    1.4027 C.3       1 ACP         0.0748
     18 O3'         1.2893   -1.4445    2.1808 O.3       1 ACP        -0.5646
     19 C2'         0.2158   -1.0724    0.0128 C.3       1 ACP         0.0804
     20 O2'         1.5141   -1.2448   -0.5513 O.3       1 ACP        -0.5882
     21 C1'        -0.7897   -1.9176   -0.7583 C.3       1 ACP         0.3809
     22 N9         -2.1040   -1.3333   -0.7704 N.pl3     1 ACP        -0.4412
     23 C8         -3.2124   -1.5345    0.2719 C.ar      1 ACP         0.1936
     24 N7         -4.2964   -0.8234   -0.0828 N.2       1 ACP        -0.2746
     25 C5         -3.8754   -0.2386   -1.2478 C.ar      1 ACP        -0.1386
     26 C6         -4.7432    0.6719   -2.0470 C.ar      1 ACP         0.4778
     27 N6         -5.9725    0.9415   -1.6366 N.pl3     1 ACP        -0.8290
     28 N1         -4.1703    1.1517   -3.1536 N.pl3     1 ACP        -0.6985
     29 C2         -2.8174    0.7994   -3.5215 C.ar      1 ACP         0.6179
     30 N3         -2.0475    0.0097   -2.8393 N.ar      1 ACP        -0.5105
     31 C4         -2.6278   -0.4836   -1.7071 C.ar      1 ACP         0.2753
     32 HOG2       -3.7769   -7.1582    8.3201 H         1 ACP         0.4487
     33 HOG3       -3.6175   -4.4106    9.1451 H         1 ACP         0.4487
     34 H3B1       -1.1881   -4.1869    6.1726 H         1 ACP         0.1088
     35 H3B2       -0.6160   -5.4648    7.2412 H         1 ACP         0.1088
     36 H5'1       -1.7614   -3.4428    2.4166 H         1 ACP         0.0327
     37 H5'2       -0.1870   -3.8724    3.1344 H         1 ACP         0.0327
     38 H4'         0.8883   -3.6447    0.8783 H         1 ACP         0.1275
     39 H3'        -0.7368   -1.2359    1.9871 H         1 ACP         0.0637
     40 HO3'        1.3407   -0.4871    2.3218 H         1 ACP         0.4127
     41 H2'        -0.0343   -0.0280    0.0196 H         1 ACP         0.0692
     42 HO2'        2.1443   -0.7955    0.0378 H         1 ACP         0.4431
     43 H1'        -0.5175   -2.1046   -1.7826 H         1 ACP         0.1199
     44 H8         -3.2310   -2.1319    1.1889 H         1 ACP         0.2941
     45 HN61       -6.3230    0.5316   -0.7829 H         1 ACP         0.4754
     46 HN62       -6.5628    1.5584   -2.1760 H         1 ACP         0.4754
     47 H2         -2.4822    1.2710   -4.4579 H         1 ACP         0.0886
     48 H48        -4.7200    1.7780   -3.7346 H         1 ACP         0.4707
@<TRIPOS>BOND
     1    1    2 2
     2    1    3 1
     3    1    4 1
     4    1    8 1
     5    3   32 1
     6    4   33 1
     7    5    6 2
     8    5    7 1
     9    5    8 1
    10    5   12 1
    11    8   34 1
    12    8   35 1
    13    9   10 2
    14    9   11 1
    15    9   12 1
    16    9   13 1
    17   13   14 1
    18   14   15 1
    19   14   36 1
    20   14   37 1
    21   15   16 1
    22   15   17 1
    23   15   38 1
    24   16   21 1
    25   17   18 1
    26   17   19 1
    27   17   39 1
    28   18   40 1
    29   19   20 1
    30   19   21 1
    31   19   41 1
    32   20   42 1
    33   21   22 1
    34   21   43 1
    35   22   23 ar
    36   22   31 ar
    37   23   24 ar
    38   23   44 1
    39   24   25 ar
    40   25   26 ar
    41   25   31 ar
    42   26   27 1
    43   26   28 ar
    44   27   45 1
    45   27   46 1
    46   28   29 ar
    47   28   48 1
    48   29   30 ar
    49   29   47 1
    50   30   31 ar
@<TRIPOS>SUBSTRUCTURE
     1 ACP         1 GROUP 0 A     ****
@<TRIPOS>MOLECULE
[[5-(6-amino-1,8-dihydropurine-6,8-diylium-7-id-9-yl)-3,4-dihydroxy-tetrahydrofuran-2-yl]methoxy-oxido-phosphoryl]oxy-(phosphonomethyl)phosphinate
   48    50     1     0     0
SMALL
USER_CHARGES

@<TRIPOS>ATOM
      1 PG          2.0043   -4.3711   -6.3319 P.3       1 ACP         1.6558
      2 O1G         1.1283   -5.5435   -6.6562 O.2       1 ACP        -0.9020
      3 O2G         1.3356   -2.9192   -6.5664 O.3       1 ACP        -0.8036
      4 O3G         3.3883   -4.2899   -7.1612 O.3       1 ACP        -0.8036
      5 PB          3.6383   -2.9593   -3.9514 P.3       1 ACP         1.4945
      6 O1B         4.9279   -2.9999   -4.7382 O.co2     1 ACP        -0.8481
      7 O2B         3.6094   -3.0560   -2.4436 O.co2     1 ACP        -0.8481
      8 C3B         2.5510   -4.3023   -4.6109 C.3       1 ACP        -0.6636
      9 PA          3.0640   -0.0874   -4.4291 P.3       1 ACP         1.6023
     10 O1A         1.8214    0.6556   -4.8701 O.co2     1 ACP        -0.8673
     11 O2A         4.3865    0.1390   -5.1289 O.co2     1 ACP        -0.8673
     12 O3A         2.7413   -1.6884   -4.4406 O.3       1 ACP        -0.8150
     13 O5'         3.2885    0.1337   -2.8242 O.3       1 ACP        -0.5522
     14 C5'         2.2816   -0.2918   -1.9206 C.3       1 ACP         0.2181
     15 C4'         2.7248    0.0226   -0.4980 C.3       1 ACP         0.0915
     16 O4'         2.4697    1.4219   -0.2462 O.3       1 ACP        -0.3675
     17 C3'         1.9404   -0.7419    0.5596 C.3       1 ACP         0.0748
     18 O3'         2.7418   -0.8086    1.7389 O.3       1 ACP        -0.5646
     19 C2'         0.7477    0.1630    0.7858 C.3       1 ACP         0.0804
     20 O2'         0.1373   -0.0577    2.0407 O.3       1 ACP        -0.5882
     21 C1'         1.3733    1.5427    0.6747 C.3       1 ACP         0.3809
     22 N9          0.4520    2.5240    0.1767 N.pl3     1 ACP        -0.4412
     23 C8         -1.0660    2.5608    0.3999 C.ar      1 ACP         0.1936
     24 N7         -1.5852    3.6333   -0.2221 N.2       1 ACP        -0.2746
     25 C5         -0.4682    4.1996   -0.7771 C.ar      1 ACP        -0.1386
     26 C6         -0.5216    5.4476   -1.5899 C.ar      1 ACP         0.4778
     27 N6         -1.6813    6.0510   -1.7982 N.pl3     1 ACP        -0.8290
     28 N1          0.6621    5.8575   -2.0523 N.pl3     1 ACP        -0.6985
     29 C2          1.8795    5.1301   -1.7717 C.ar      1 ACP         0.6179
     30 N3          1.9458    4.0434   -1.0670 N.ar      1 ACP        -0.5105
     31 C4          0.7388    3.6199   -0.5917 C.ar      1 ACP         0.2753
     32 HOG2        1.0303   -2.6766   -7.4664 H         1 ACP         0.4487
     33 HOG3        3.3531   -4.2279   -8.1394 H         1 ACP         0.4487
     34 H3B1        1.6556   -4.2927   -3.9793 H         1 ACP         0.1088
     35 H3B2        3.0771   -5.2414   -4.4047 H         1 ACP         0.1088
     36 H5'1        1.3501    0.2325   -2.1561 H         1 ACP         0.0327
     37 H5'2        2.1268   -1.3683   -2.0445 H         1 ACP         0.0327
     38 H4'         3.8046   -0.1390   -0.4011 H         1 ACP         0.1275
     39 H3'         1.6787   -1.7627    0.2719 H         1 ACP         0.0637
     40 HO3'        2.2231   -1.2979    2.3952 H         1 ACP         0.4127
     41 H2'         0.0002   -0.0084   -0.0014 H         1 ACP         0.0692
     42 HO2'       -0.1554   -0.9852    2.0577 H         1 ACP         0.4431
     43 H1'         1.7718    1.9211    1.6015 H         1 ACP         0.1199
     44 H8         -1.7235    1.8833    0.9537 H         1 ACP         0.2941
     45 HN61       -2.5296    5.6672   -1.4072 H         1 ACP         0.4754
     46 HN62       -1.7205    6.8969   -2.3483 H         1 ACP         0.4754
     47 H2          2.7750    5.5878   -2.2190 H         1 ACP         0.0886
     48 H48         0.6808    6.7046   -2.6128 H         1 ACP         0.4707
@<TRIPOS>BOND
     1    1    2 2
     2    1    3 1
     3    1    4 1
     4    1    8 1
     5    3   32 1
     6    4   33 1
     7    5    6 2
     8    5    7 1
     9    5    8 1
    10    5   12 1
    11    8   34 1
    12    8   35 1
    13    9   10 2
    14    9   11 1
    15    9   12 1
    16    9   13 1
    17   13   14 1
    18   14   15 1
    19   14   36 1
    20   14   37 1
    21   15   16 1
    22   15   17 1
    23   15   38 1
    24   16   21 1
    25   17   18 1
    26   17   19 1
    27   17   39 1
    28   18   40 1
    29   19   20 1
    30   19   21 1
    31   19   41 1
    32   20   42 1
    33   21   22 1
    34   21   43 1
    35   22   23 ar
    36   22   31 ar
    37   23   24 ar
    38   23   44 1
    39   24   25 ar
    40   25   26 ar
    41   25   31 ar
    42   26   27 1
    43   26   28 ar
    44   27   45 1
    45   27   46 1
    46   28   29 ar
    47   28   48 1
    48   29   30 ar
    49   29   47 1
    50   30   31 ar
@<TRIPOS>SUBSTRUCTURE
     1 ACP         1 GROUP 0 A     ****
@<TRIPOS>MOLECULE
[[5-(6-amino-1,8-dihydropurine-6,8-diylium-7-id-9-yl)-3,4-dihydroxy-tetrahydrofuran-2-yl]methoxy-oxido-phosphoryl]oxy-(phosphonomethyl)phosphinate
   48    50     1     0     0
SMALL
USER_CHARGES

@<TRIPOS>ATOM
      1 PG          5.0058   -2.5147   -7.1105 P.3       1 ACP         1.6558
      2 O1G         5.0394   -1.5858   -8.2866 O.2       1 ACP        -0.9020
      3 O2G         5.8971   -3.8541   -7.2583 O.3       1 ACP        -0.8036
      4 O3G         3.5439   -3.0740   -6.7108 O.3       1 ACP        -0.8036
      5 PB          4.8276   -0.3014   -4.7869 P.3       1 ACP         1.4945
      6 O1B         4.9262    0.8314   -5.7822 O.co2     1 ACP        -0.8481
      7 O2B         5.3762   -0.1923   -3.3830 O.co2     1 ACP        -0.8481
      8 C3B         5.6039   -1.7872   -5.5683 C.3       1 ACP        -0.6636
      9 PA          2.6171   -2.0488   -3.8563 P.3       1 ACP         1.6023
     10 O1A         3.4076   -3.3191   -4.0840 O.co2     1 ACP        -0.8673
     11 O2A         1.1208   -2.0213   -4.0811 O.co2     1 ACP        -0.8673
     12 O3A         3.2937   -0.8528   -4.7390 O.3       1 ACP        -0.8150
     13 O5'         2.9203   -1.4822   -2.3523 O.3       1 ACP        -0.5522
     14 C5'         2.2816   -0.2918   -1.9206 C.3       1 ACP         0.2181
     15 C4'         2.7248    0.0226   -0.4980 C.3       1 ACP         0.0915
     16 O4'         2.4697    1.4219   -0.2462 O.3       1 ACP        -0.3675
     17 C3'         1.9404   -0.7419    0.5596 C.3       1 ACP         0.0748
     18 O3'         2.7418   -0.8086    1.7389 O.3       1 ACP        -0.5646
     19 C2'         0.7477    0.1630    0.7858 C.3       1 ACP         0.0804
     20 O2'         0.1373   -0.0577    2.0407 O.3       1 ACP        -0.5882
     21 C1'         1.3733    1.5427    0.6747 C.3       1 ACP         0.3809
     22 N9          0.4520    2.5240    0.1767 N.pl3     1 ACP        -0.4412
     23 C8         -0.3054    2.4845   -1.1576 C.ar      1 ACP         0.1936
     24 N7         -1.0755    3.5806   -1.2691 N.2       1 ACP        -0.2746
     25 C5         -0.8043    4.2306   -0.0942 C.ar      1 ACP        -0.1386
     26 C6         -1.4324    5.5335    0.2646 C.ar      1 ACP         0.4778
     27 N6         -2.2885    6.1054   -0.5675 N.pl3     1 ACP        -0.8290
     28 N1         -1.0537    6.0229    1.4478 N.pl3     1 ACP        -0.6985
     29 C2         -0.1096    5.3242    2.2908 C.ar      1 ACP         0.6179
     30 N3          0.4468    4.1904    1.9960 N.ar      1 ACP        -0.5105
     31 C4          0.0631    3.6855    0.7877 C.ar      1 ACP         0.2753
     32 HOG2        5.7005   -4.4772   -7.9899 H         1 ACP         0.4487
     33 HOG3        3.0375   -3.5942   -7.3704 H         1 ACP         0.4487
     34 H3B1        5.5789   -2.5697   -4.8015 H         1 ACP         0.1088
     35 H3B2        6.6570   -1.5270   -5.7248 H         1 ACP         0.1088
     36 H5'1        2.5581    0.5234   -2.5967 H         1 ACP         0.0327
     37 H5'2        1.1975   -0.4371   -1.9608 H         1 ACP         0.0327
     38 H4'         3.8046   -0.1390   -0.4011 H         1 ACP         0.1275
     39 H3'         1.6787   -1.7627    0.2719 H         1 ACP         0.0637
     40 HO3'        2.2231   -1.2979    2.3952 H         1 ACP         0.4127
     41 H2'         0.0002   -0.0084   -0.0014 H         1 ACP         0.0692
     42 HO2'       -0.1554   -0.9852    2.0577 H         1 ACP         0.4431
     43 H1'         1.7718    1.9211    1.6015 H         1 ACP         0.1199
     44 H8         -0.2991    1.7413   -1.9611 H         1 ACP         0.2941
     45 HN61       -2.5167    5.6603   -1.4447 H         1 ACP         0.4754
     46 HN62       -2.7159    6.9882   -0.3270 H         1 ACP         0.4754
     47 H2          0.1059    5.8491    3.2340 H         1 ACP         0.0886
     48 H48        -1.4532    6.9099    1.7401 H         1 ACP         0.4707
@<TRIPOS>BOND
     1    1    2 2
     2    1    3 1
     3    1    4 1
     4    1    8 1
     5    3   32 1
     6    4   33 1
     7    5    6 2
     8    5    7 1
     9    5    8 1
    10    5   12 1
    11    8   34 1
    12    8   35 1
    13    9   10 2
    14    9   11 1
    15    9   12 1
    16    9   13 1
    17   13   14 1
    18   14   15 1
    19   14   36 1
    20   14   37 1
    21   15   16 1
    22   15   17 1
    23   15   38 1
    24   16   21 1
    25   17   18 1
    26   17   19 1
    27   17   39 1
    28   18   40 1
    29   19   20 1
    30   19   21 1
    31   19   41 1
    32   20   42 1
    33   21   22 1
    34   21   43 1
    35   22   23 ar
    36   22   31 ar
    37   23   24 ar
    38   23   44 1
    39   24   25 ar
    40   25   26 ar
    41   25   31 ar
    42   26   27 1
    43   26   28 ar
    44   27   45 1
    45   27   46 1
    46   28   29 ar
    47   28   48 1
    48   29   30 ar
    49   29   47 1
    50   30   31 ar
@<TRIPOS>SUBSTRUCTURE
     1 ACP         1 GROUP 0 A     ****
@<TRIPOS>MOLECULE
[[5-(6-amino-1,8-dihydropurine-6,8-diylium-7-id-9-yl)-3,4-dihydroxy-tetrahydrofuran-2-yl]methoxy-oxido-phosphoryl]oxy-(phosphonomethyl)phosphinate
   48    50     1     0     0
SMALL
USER_CHARGES

@<TRIPOS>ATOM
      1 PG         -2.7713   -2.8418   -4.6155 P.3       1 ACP         1.6558
      2 O1G        -2.2142   -1.7839   -5.5199 O.2       1 ACP        -0.9020
      3 O2G        -2.5315   -4.3647   -5.0989 O.3       1 ACP        -0.8036
      4 O3G        -4.3655   -2.7699   -4.3648 O.3       1 ACP        -0.8036
      5 PB         -0.2903   -3.0564   -2.5836 P.3       1 ACP         1.4945
      6 O1B         0.1035   -4.4129   -3.1207 O.co2     1 ACP        -0.8481
      7 O2B        -0.0639   -2.6621   -1.1425 O.co2     1 ACP        -0.8481
      8 C3B        -2.0902   -2.8262   -2.9418 C.3       1 ACP        -0.6636
      9 PA          0.1610   -0.2655   -3.4854 P.3       1 ACP         1.6023
     10 O1A        -1.3031    0.1010   -3.3725 O.co2     1 ACP        -0.8673
     11 O2A         1.0247    0.3365   -4.5724 O.co2     1 ACP        -0.8673
     12 O3A         0.2823   -1.8920   -3.5712 O.3       1 ACP        -0.8150
     13 O5'         0.8969   -0.0131   -2.0467 O.3       1 ACP        -0.5522
     14 C5'         2.2816   -0.2918   -1.9206 C.3       1 ACP         0.2181
     15 C4'         2.7248    0.0226   -0.4980 C.3       1 ACP         0.0915
     16 O4'         2.4697    1.4219   -0.2462 O.3       1 ACP        -0.3675
     17 C3'         1.9404   -0.7419    0.5596 C.3       1 ACP         0.0748
     18 O3'         2.7418   -0.8086    1.7389 O.3       1 ACP        -0.5646
     19 C2'         0.7477    0.1630    0.7858 C.3       1 ACP         0.0804
     20 O2'         0.1373   -0.0577    2.0407 O.3       1 ACP        -0.5882
     21 C1'         1.3733    1.5427    0.6747 C.3       1 ACP         0.3809
     22 N9          0.4520    2.5240    0.1767 N.pl3     1 ACP        -0.4412
     23 C8          0.1798    2.8712   -1.2933 C.ar      1 ACP         0.1936
     24 N7         -0.7494    3.8400   -1.3610 N.2       1 ACP        -0.2746
     25 C5         -1.0173    4.0603   -0.0358 C.ar      1 ACP        -0.1386
     26 C6         -2.0105    5.0717    0.4241 C.ar      1 ACP         0.4778
     27 N6         -2.6723    5.7982   -0.4628 N.pl3     1 ACP        -0.8290
     28 N1         -2.1445    5.1522    1.7502 N.pl3     1 ACP        -0.6985
     29 C2         -1.3755    4.3143    2.6426 C.ar      1 ACP         0.6179
     30 N3         -0.5075    3.4292    2.2616 N.ar      1 ACP        -0.5105
     31 C4         -0.3667    3.3425    0.9070 C.ar      1 ACP         0.2753
     32 HOG2       -2.8958   -4.6517   -5.9631 H         1 ACP         0.4487
     33 HOG3       -4.9712   -2.8468   -5.1325 H         1 ACP         0.4487
     34 H3B1       -2.3614   -1.8687   -2.4830 H         1 ACP         0.1088
     35 H3B2       -2.6099   -3.6092   -2.3778 H         1 ACP         0.1088
     36 H5'1        2.4523   -1.3484   -2.1500 H         1 ACP         0.0327
     37 H5'2        2.8334    0.3233   -2.6385 H         1 ACP         0.0327
     38 H4'         3.8046   -0.1390   -0.4011 H         1 ACP         0.1275
     39 H3'         1.6787   -1.7627    0.2719 H         1 ACP         0.0637
     40 HO3'        2.2231   -1.2979    2.3952 H         1 ACP         0.4127
     41 H2'         0.0002   -0.0084   -0.0014 H         1 ACP         0.0692
     42 HO2'       -0.6132    0.5577    2.1063 H         1 ACP         0.4431
     43 H1'         1.7718    1.9211    1.6015 H         1 ACP         0.1199
     44 H8          0.6089    2.4651   -2.2147 H         1 ACP         0.2941
     45 HN61       -2.5055    5.6680   -1.4503 H         1 ACP         0.4754
     46 HN62       -3.3462    6.4841   -0.1542 H         1 ACP         0.4754
     47 H2         -1.5932    4.4937    3.7066 H         1 ACP         0.0886
     48 H48        -2.8098    5.8270    2.1160 H         1 ACP         0.4707
@<TRIPOS>BOND
     1    1    2 2
     2    1    3 1
     3    1    4 1
     4    1    8 1
     5    3   32 1
     6    4   33 1
     7    5    6 2
     8    5    7 1
     9    5    8 1
    10    5   12 1
    11    8   34 1
    12    8   35 1
    13    9   10 2
    14    9   11 1
    15    9   12 1
    16    9   13 1
    17   13   14 1
    18   14   15 1
    19   14   36 1
    20   14   37 1
    21   15   16 1
    22   15   17 1
    23   15   38 1
    24   16   21 1
    25   17   18 1
    26   17   19 1
    27   17   39 1
    28   18   40 1
    29   19   20 1
    30   19   21 1
    31   19   41 1
    32   20   42 1
    33   21   22 1
    34   21   43 1
    35   22   23 ar
    36   22   31 ar
    37   23   24 ar
    38   23   44 1
    39   24   25 ar
    40   25   26 ar
    41   25   31 ar
    42   26   27 1
    43   26   28 ar
    44   27   45 1
    45   27   46 1
    46   28   29 ar
    47   28   48 1
    48   29   30 ar
    49   29   47 1
    50   30   31 ar
@<TRIPOS>SUBSTRUCTURE
     1 ACP         1 GROUP 0 A     ****
@<TRIPOS>MOLECULE
[[5-(6-amino-1,8-dihydropurine-6,8-diylium-7-id-9-yl)-3,4-dihydroxy-tetrahydrofuran-2-yl]methoxy-oxido-phosphoryl]oxy-(phosphonomethyl)phosphinate
   48    50     1     0     0
SMALL
USER_CHARGES

@<TRIPOS>ATOM
      1 PG          3.1198    4.2127   -6.1989 P.3       1 ACP         1.6558
      2 O1G         2.6713    2.9591   -6.8878 O.2       1 ACP        -0.9020
      3 O2G         2.0146    5.3876   -6.1072 O.3       1 ACP        -0.8036
      4 O3G         4.3993    4.9459   -6.8583 O.3       1 ACP        -0.8036
      5 PB          2.4811    3.3248   -3.1767 P.3       1 ACP         1.4945
      6 O1B         1.3105    4.2761   -3.0861 O.co2     1 ACP        -0.8481
      7 O2B         3.3265    2.9686   -1.9758 O.co2     1 ACP        -0.8481
      8 C3B         3.6204    3.9796   -4.4782 C.3       1 ACP        -0.6636
      9 PA          2.8587    0.6155   -4.3269 P.3       1 ACP         1.6023
     10 O1A         4.0963    1.0194   -5.0986 O.co2     1 ACP        -0.8673
     11 O2A         1.8949   -0.4037   -4.8946 O.co2     1 ACP        -0.8673
     12 O3A         2.0199    1.9653   -3.9502 O.3       1 ACP        -0.8150
     13 O5'         3.2885    0.1337   -2.8242 O.3       1 ACP        -0.5522
     14 C5'         2.2816   -0.2918   -1.9206 C.3       1 ACP         0.2181
     15 C4'         2.7248    0.0226   -0.4980 C.3       1 ACP         0.0915
     16 O4'         2.4697    1.4219   -0.2462 O.3       1 ACP        -0.3675
     17 C3'         1.9404   -0.7419    0.5596 C.3       1 ACP         0.0748
     18 O3'         2.7418   -0.8086    1.7389 O.3       1 ACP        -0.5646
     19 C2'         0.7477    0.1630    0.7858 C.3       1 ACP         0.0804
     20 O2'         0.1373   -0.0577    2.0407 O.3       1 ACP        -0.5882
     21 C1'         1.3733    1.5427    0.6747 C.3       1 ACP         0.3809
     22 N9          0.4520    2.5240    0.1767 N.pl3     1 ACP        -0.4412
     23 C8         -0.7463    2.2774   -0.7501 C.ar      1 ACP         0.1936
     24 N7         -1.3714    3.4419   -0.9948 N.2       1 ACP        -0.2746
     25 C5         -0.6104    4.3223   -0.2723 C.ar      1 ACP        -0.1386
     26 C6         -0.9062    5.7820   -0.2194 C.ar      1 ACP         0.4778
     27 N6         -1.9385    6.2713   -0.8881 N.pl3     1 ACP        -0.8290
     28 N1         -0.0613    6.4906    0.5336 N.pl3     1 ACP        -0.6985
     29 C2          1.0416    5.8662    1.2291 C.ar      1 ACP         0.6179
     30 N3          1.3146    4.5989    1.1954 N.ar      1 ACP        -0.5105
     31 C4          0.4541    3.8697    0.4273 C.ar      1 ACP         0.2753
     32 HOG2        1.6439    5.7569   -6.9368 H         1 ACP         0.4487
     33 HOG3        4.3425    5.2568   -7.7868 H         1 ACP         0.4487
     34 H3B1        4.4880    3.3101   -4.4737 H         1 ACP         0.1088
     35 H3B2        3.9660    4.9527   -4.1111 H         1 ACP         0.1088
     36 H5'1        1.3501    0.2325   -2.1561 H         1 ACP         0.0327
     37 H5'2        2.1268   -1.3683   -2.0445 H         1 ACP         0.0327
     38 H4'         3.8046   -0.1390   -0.4011 H         1 ACP         0.1275
     39 H3'         1.6787   -1.7627    0.2719 H         1 ACP         0.0637
     40 HO3'        2.2231   -1.2979    2.3952 H         1 ACP         0.4127
     41 H2'         0.0002   -0.0084   -0.0014 H         1 ACP         0.0692
     42 HO2'       -0.1554   -0.9852    2.0577 H         1 ACP         0.4431
     43 H1'         1.7718    1.9211    1.6015 H         1 ACP         0.1199
     44 H8         -1.1244    1.3534   -1.1987 H         1 ACP         0.2941
     45 HN61       -2.5259    5.6573   -1.4336 H         1 ACP         0.4754
     46 HN62       -2.1416    7.2600   -0.8539 H         1 ACP         0.4754
     47 H2          1.6509    6.5764    1.8088 H         1 ACP         0.0886
     48 H48        -0.2190    7.4917    0.6033 H         1 ACP         0.4707
@<TRIPOS>BOND
     1    1    2 2
     2    1    3 1
     3    1    4 1
     4    1    8 1
     5    3   32 1
     6    4   33 1
     7    5    6 2
     8    5    7 1
     9    5    8 1
    10    5   12 1
    11    8   34 1
    12    8   35 1
    13    9   10 2
    14    9   11 1
    15    9   12 1
    16    9   13 1
    17   13   14 1
    18   14   15 1
    19   14   36 1
    20   14   37 1
    21   15   16 1
    22   15   17 1
    23   15   38 1
    24   16   21 1
    25   17   18 1
    26   17   19 1
    27   17   39 1
    28   18   40 1
    29   19   20 1
    30   19   21 1
    31   19   41 1
    32   20   42 1
    33   21   22 1
    34   21   43 1
    35   22   23 ar
    36   22   31 ar
    37   23   24 ar
    38   23   44 1
    39   24   25 ar
    40   25   26 ar
    41   25   31 ar
    42   26   27 1
    43   26   28 ar
    44   27   45 1
    45   27   46 1
    46   28   29 ar
    47   28   48 1
    48   29   30 ar
    49   29   47 1
    50   30   31 ar
@<TRIPOS>SUBSTRUCTURE
     1 ACP         1 GROUP 0 A     ****
@<TRIPOS>MOLECULE
[[5-(6-amino-1,8-dihydropurine-6,8-diylium-7-id-9-yl)-3,4-dihydroxy-tetrahydrofuran-2-yl]methoxy-oxido-phosphoryl]oxy-(phosphonomethyl)phosphinate
   48    50     1     0     0
SMALL
USER_CHARGES

@<TRIPOS>ATOM
      1 PG          0.0115   -1.0509   -7.4385 P.3       1 ACP         1.6558
      2 O1G        -0.5991   -0.1618   -8.4797 O.2       1 ACP        -0.9020
      3 O2G         1.6119   -0.9166   -7.2632 O.3       1 ACP        -0.8036
      4 O3G        -0.2143   -2.6349   -7.6611 O.3       1 ACP        -0.8036
      5 PB         -0.0254   -1.7404   -4.2995 P.3       1 ACP         1.4945
      6 O1B        -0.3345   -3.1954   -4.5665 O.co2     1 ACP        -0.8481
      7 O2B        -0.5175   -1.0244   -3.0631 O.co2     1 ACP        -0.8481
      8 C3B        -0.6131   -0.7772   -5.7650 C.3       1 ACP        -0.6636
      9 PA          2.8590   -2.1285   -3.7205 P.3       1 ACP         1.6023
     10 O1A         4.1100   -1.4231   -4.1979 O.co2     1 ACP        -0.8673
     11 O2A         2.7489   -3.6360   -3.7934 O.co2     1 ACP        -0.8673
     12 O3A         1.5729   -1.4791   -4.4897 O.3       1 ACP        -0.8150
     13 O5'         2.5238   -1.6632   -2.1888 O.3       1 ACP        -0.5522
     14 C5'         2.2816   -0.2918   -1.9206 C.3       1 ACP         0.2181
     15 C4'         2.7248    0.0226   -0.4980 C.3       1 ACP         0.0915
     16 O4'         2.4697    1.4219   -0.2462 O.3       1 ACP        -0.3675
     17 C3'         1.9404   -0.7419    0.5596 C.3       1 ACP         0.0748
     18 O3'         2.7418   -0.8086    1.7389 O.3       1 ACP        -0.5646
     19 C2'         0.7477    0.1630    0.7858 C.3       1 ACP         0.0804
     20 O2'         0.1373   -0.0577    2.0407 O.3       1 ACP        -0.5882
     21 C1'         1.3733    1.5427    0.6747 C.3       1 ACP         0.3809
     22 N9          0.4520    2.5240    0.1767 N.pl3     1 ACP        -0.4412
     23 C8          0.5793    3.3338   -1.1209 C.ar      1 ACP         0.1936
     24 N7         -0.4807    4.1508   -1.2458 N.2       1 ACP        -0.2746
     25 C5         -1.1921    3.8572   -0.1126 C.ar      1 ACP        -0.1386
     26 C6         -2.4855    4.5203    0.2163 C.ar      1 ACP         0.4778
     27 N6         -2.9873    5.4319   -0.6020 N.pl3     1 ACP        -0.8290
     28 N1         -3.0414    4.1119    1.3596 N.pl3     1 ACP        -0.6985
     29 C2         -2.4169    3.1071    2.1904 C.ar      1 ACP         0.6179
     30 N3         -1.2928    2.5191    1.9210 N.ar      1 ACP        -0.5105
     31 C4         -0.7202    2.9326    0.7534 C.ar      1 ACP         0.2753
     32 HOG2        2.1916   -1.1082   -8.0308 H         1 ACP         0.4487
     33 HOG3        0.1248   -3.0526   -8.4812 H         1 ACP         0.4487
     34 H3B1       -0.4385    0.2753   -5.5145 H         1 ACP         0.1088
     35 H3B2       -1.6990   -0.9208   -5.8015 H         1 ACP         0.1088
     36 H5'1        2.8430    0.3138   -2.6391 H         1 ACP         0.0327
     37 H5'2        1.2126   -0.0907   -2.0421 H         1 ACP         0.0327
     38 H4'         3.8046   -0.1390   -0.4011 H         1 ACP         0.1275
     39 H3'         1.6787   -1.7627    0.2719 H         1 ACP         0.0637
     40 HO3'        3.5553   -1.2733    1.4913 H         1 ACP         0.4127
     41 H2'         0.0002   -0.0084   -0.0014 H         1 ACP         0.0692
     42 HO2'        0.8091    0.1203    2.7213 H         1 ACP         0.4431
     43 H1'         1.7718    1.9211    1.6015 H         1 ACP         0.1199
     44 H8          1.3565    3.3309   -1.8916 H         1 ACP         0.2941
     45 HN61       -3.8634    5.8832   -0.3817 H         1 ACP         0.4754
     46 HN62       -2.4948    5.6788   -1.4484 H         1 ACP         0.4754
     47 H2         -2.9911    2.8734    3.1000 H         1 ACP         0.0886
     48 H48        -3.9253    4.5332    1.6302 H         1 ACP         0.4707
@<TRIPOS>BOND
     1    1    2 2
     2    1    3 1
     3    1    4 1
     4    1    8 1
     5    3   32 1
     6    4   33 1
     7    5    6 2
     8    5    7 1
     9    5    8 1
    10    5   12 1
    11    8   34 1
    12    8   35 1
    13    9   10 2
    14    9   11 1
    15    9   12 1
    16    9   13 1
    17   13   14 1
    18   14   15 1
    19   14   36 1
    20   14   37 1
    21   15   16 1
    22   15   17 1
    23   15   38 1
    24   16   21 1
    25   17   18 1
    26   17   19 1
    27   17   39 1
    28   18   40 1
    29   19   20 1
    30   19   21 1
    31   19   41 1
    32   20   42 1
    33   21   22 1
    34   21   43 1
    35   22   23 ar
    36   22   31 ar
    37   23   24 ar
    38   23   44 1
    39   24   25 ar
    40   25   26 ar
    41   25   31 ar
    42   26   27 1
    43   26   28 ar
    44   27   45 1
    45   27   46 1
    46   28   29 ar
    47   28   48 1
    48   29   30 ar
    49   29   47 1
    50   30   31 ar
@<TRIPOS>SUBSTRUCTURE
     1 ACP         1 GROUP 0 A     ****
@<TRIPOS>MOLECULE
[[5-(6-amino-1,8-dihydropurine-6,8-diylium-7-id-9-yl)-3,4-dihydroxy-tetrahydrofuran-2-yl]methoxy-oxido-phosphoryl]oxy-(phosphonomethyl)phosphinate
   48    50     1     0     0
SMALL
USER_CHARGES

@<TRIPOS>ATOM
      1 PG         -2.0514   -4.0920    7.0462 P.3       1 ACP         1.6558
      2 O1G        -0.8808   -3.1577    7.1089 O.2       1 ACP        -0.9020
      3 O2G        -3.1998   -3.6952    5.9813 O.3       1 ACP        -0.8036
      4 O3G        -2.8646   -4.2776    8.4297 O.3       1 ACP        -0.8036
      5 PB         -0.8212   -6.2256    4.9812 P.3       1 ACP         1.4945
      6 O1B        -0.6320   -7.7248    4.9691 O.co2     1 ACP        -0.8481
      7 O2B         0.3279   -5.2654    4.7781 O.co2     1 ACP        -0.8481
      8 C3B        -1.6283   -5.7877    6.5867 C.3       1 ACP        -0.6636
      9 PA         -2.2659   -6.0657    2.3941 P.3       1 ACP         1.6023
     10 O1A        -3.5371   -5.3651    1.9652 O.co2     1 ACP        -0.8673
     11 O2A        -2.0598   -7.5360    2.1012 O.co2     1 ACP        -0.8673
     12 O3A        -2.0569   -5.8242    3.9959 O.3       1 ACP        -0.8150
     13 O5'        -0.9728   -5.2428    1.8236 O.3       1 ACP        -0.5522
     14 C5'        -0.7840   -3.8935    2.2172 C.3       1 ACP         0.2181
     15 C4'        -0.0724   -3.1466    1.1027 C.3       1 ACP         0.0915
     16 O4'        -0.8674   -3.1929   -0.0945 O.3       1 ACP        -0.3675
     17 C3'         0.1338   -1.6715    1.4027 C.3       1 ACP         0.0748
     18 O3'         1.2893   -1.4445    2.1808 O.3       1 ACP        -0.5646
     19 C2'         0.2158   -1.0724    0.0128 C.3       1 ACP         0.0804
     20 O2'         1.5141   -1.2448   -0.5513 O.3       1 ACP        -0.5882
     21 C1'        -0.7897   -1.9176   -0.7583 C.3       1 ACP         0.3809
     22 N9         -2.1040   -1.3333   -0.7704 N.pl3     1 ACP        -0.4412
     23 C8         -3.2124   -1.5345    0.2719 C.ar      1 ACP         0.1936
     24 N7         -4.2964   -0.8234   -0.0828 N.2       1 ACP        -0.2746
     25 C5         -3.8754   -0.2386   -1.2478 C.ar      1 ACP        -0.1386
     26 C6         -4.7432    0.6719   -2.0470 C.ar      1 ACP         0.4778
     27 N6         -5.9725    0.9415   -1.6366 N.pl3     1 ACP        -0.8290
     28 N1         -4.1703    1.1517   -3.1536 N.pl3     1 ACP        -0.6985
     29 C2         -2.8174    0.7994   -3.5215 C.ar      1 ACP         0.6179
     30 N3         -2.0475    0.0097   -2.8393 N.ar      1 ACP        -0.5105
     31 C4         -2.6278   -0.4836   -1.7071 C.ar      1 ACP         0.2753
     32 HOG2       -3.6581   -2.8332    6.0760 H         1 ACP         0.4487
     33 HOG3       -3.2785   -3.4922    8.8467 H         1 ACP         0.4487
     34 H3B1       -0.9693   -6.1871    7.3659 H         1 ACP         0.1088
     35 H3B2       -2.5560   -6.3700    6.6237 H         1 ACP         0.1088
     36 H5'1       -1.7614   -3.4428    2.4166 H         1 ACP         0.0327
     37 H5'2       -0.1870   -3.8724    3.1344 H         1 ACP         0.0327
     38 H4'         0.8883   -3.6447    0.8783 H         1 ACP         0.1275
     39 H3'        -0.7368   -1.2359    1.9871 H         1 ACP         0.0637
     40 HO3'        1.3407   -0.4871    2.3218 H         1 ACP         0.4127
     41 H2'        -0.0343   -0.0280    0.0196 H         1 ACP         0.0692
     42 HO2'        2.1443   -0.7955    0.0378 H         1 ACP         0.4431
     43 H1'        -0.5175   -2.1046   -1.7826 H         1 ACP         0.1199
     44 H8         -3.2310   -2.1319    1.1889 H         1 ACP         0.2941
     45 HN61       -6.3230    0.5316   -0.7829 H         1 ACP         0.4754
     46 HN62       -6.5628    1.5584   -2.1760 H         1 ACP         0.4754
     47 H2         -2.4822    1.2710   -4.4579 H         1 ACP         0.0886
     48 H48        -4.7200    1.7780   -3.7346 H         1 ACP         0.4707
@<TRIPOS>BOND
     1    1    2 2
     2    1    3 1
     3    1    4 1
     4    1    8 1
     5    3   32 1
     6    4   33 1
     7    5    6 2
     8    5    7 1
     9    5    8 1
    10    5   12 1
    11    8   34 1
    12    8   35 1
    13    9   10 2
    14    9   11 1
    15    9   12 1
    16    9   13 1
    17   13   14 1
    18   14   15 1
    19   14   36 1
    20   14   37 1
    21   15   16 1
    22   15   17 1
    23   15   38 1
    24   16   21 1
    25   17   18 1
    26   17   19 1
    27   17   39 1
    28   18   40 1
    29   19   20 1
    30   19   21 1
    31   19   41 1
    32   20   42 1
    33   21   22 1
    34   21   43 1
    35   22   23 ar
    36   22   31 ar
    37   23   24 ar
    38   23   44 1
    39   24   25 ar
    40   25   26 ar
    41   25   31 ar
    42   26   27 1
    43   26   28 ar
    44   27   45 1
    45   27   46 1
    46   28   29 ar
    47   28   48 1
    48   29   30 ar
    49   29   47 1
    50   30   31 ar
@<TRIPOS>SUBSTRUCTURE
     1 ACP         1 GROUP 0 A     ****
@<TRIPOS>MOLECULE
[[5-(6-amino-1,8-dihydropurine-6,8-diylium-7-id-9-yl)-3,4-dihydroxy-tetrahydrofuran-2-yl]methoxy-oxido-phosphoryl]oxy-(phosphonomethyl)phosphinate
   48    50     1     0     0
SMALL
USER_CHARGES

@<TRIPOS>ATOM
      1 PG          3.0036   -3.1316    4.8062 P.3       1 ACP         1.6558
      2 O1G         3.8262   -2.4908    5.8833 O.2       1 ACP        -0.9020
      3 O2G         3.2282   -2.5430    3.3185 O.3       1 ACP        -0.8036
      4 O3G         1.4036   -3.0437    5.0115 O.3       1 ACP        -0.8036
      5 PB          2.4106   -5.9303    3.3415 P.3       1 ACP         1.4945
      6 O1B         2.9231   -7.3454    3.4780 O.co2     1 ACP        -0.8481
      7 O2B         2.4573   -5.1778    2.0319 O.co2     1 ACP        -0.8481
      8 C3B         3.2954   -4.9029    4.5995 C.3       1 ACP        -0.6636
      9 PA         -0.5395   -6.2491    3.3735 P.3       1 ACP         1.6023
     10 O1A        -1.6135   -5.8062    4.3436 O.co2     1 ACP        -0.8673
     11 O2A        -0.4654   -7.6878    2.9102 O.co2     1 ACP        -0.8673
     12 O3A         0.9155   -5.8278    3.9843 O.3       1 ACP        -0.8150
     13 O5'        -0.5696   -5.2856    2.0523 O.3       1 ACP        -0.5522
     14 C5'        -0.7840   -3.8935    2.2172 C.3       1 ACP         0.2181
     15 C4'        -0.0724   -3.1466    1.1027 C.3       1 ACP         0.0915
     16 O4'        -0.8674   -3.1929   -0.0945 O.3       1 ACP        -0.3675
     17 C3'         0.1338   -1.6715    1.4027 C.3       1 ACP         0.0748
     18 O3'         1.2893   -1.4445    2.1808 O.3       1 ACP        -0.5646
     19 C2'         0.2158   -1.0724    0.0128 C.3       1 ACP         0.0804
     20 O2'         1.5141   -1.2448   -0.5513 O.3       1 ACP        -0.5882
     21 C1'        -0.7897   -1.9176   -0.7583 C.3       1 ACP         0.3809
     22 N9         -2.1040   -1.3333   -0.7704 N.pl3     1 ACP        -0.4412
     23 C8         -3.2124   -1.5345    0.2719 C.ar      1 ACP         0.1936
     24 N7         -4.2964   -0.8234   -0.0828 N.2       1 ACP        -0.2746
     25 C5         -3.8754   -0.2386   -1.2478 C.ar      1 ACP        -0.1386
     26 C6         -4.7432    0.6719   -2.0470 C.ar      1 ACP         0.4778
     27 N6         -5.9725    0.9415   -1.6366 N.pl3     1 ACP        -0.8290
     28 N1         -4.1703    1.1517   -3.1536 N.pl3     1 ACP        -0.6985
     29 C2         -2.8174    0.7994   -3.5215 C.ar      1 ACP         0.6179
     30 N3         -2.0475    0.0097   -2.8393 N.ar      1 ACP        -0.5105
     31 C4         -2.6278   -0.4836   -1.7071 C.ar      1 ACP         0.2753
     32 HOG2        3.0441   -1.5945    3.1500 H         1 ACP         0.4487
     33 HOG3        0.9794   -2.1610    5.0661 H         1 ACP         0.4487
     34 H3B1        4.3629   -5.0408    4.3938 H         1 ACP         0.1088
     35 H3B2        3.0930   -5.3755    5.5674 H         1 ACP         0.1088
     36 H5'1       -1.8599   -3.6947    2.1849 H         1 ACP         0.0327
     37 H5'2       -0.3934   -3.5882    3.1930 H         1 ACP         0.0327
     38 H4'         0.8883   -3.6447    0.8783 H         1 ACP         0.1275
     39 H3'        -0.7368   -1.2359    1.9871 H         1 ACP         0.0637
     40 HO3'        1.3407   -0.4871    2.3218 H         1 ACP         0.4127
     41 H2'        -0.0343   -0.0280    0.0196 H         1 ACP         0.0692
     42 HO2'        2.1443   -0.7955    0.0378 H         1 ACP         0.4431
     43 H1'        -0.5175   -2.1046   -1.7826 H         1 ACP         0.1199
     44 H8         -3.2310   -2.1319    1.1889 H         1 ACP         0.2941
     45 HN61       -6.3230    0.5316   -0.7829 H         1 ACP         0.4754
     46 HN62       -6.5628    1.5584   -2.1760 H         1 ACP         0.4754
     47 H2         -2.4822    1.2710   -4.4579 H         1 ACP         0.0886
     48 H48        -4.7200    1.7780   -3.7346 H         1 ACP         0.4707
@<TRIPOS>BOND
     1    1    2 2
     2    1    3 1
     3    1    4 1
     4    1    8 1
     5    3   32 1
     6    4   33 1
     7    5    6 2
     8    5    7 1
     9    5    8 1
    10    5   12 1
    11    8   34 1
    12    8   35 1
    13    9   10 2
    14    9   11 1
    15    9   12 1
    16    9   13 1
    17   13   14 1
    18   14   15 1
    19   14   36 1
    20   14   37 1
    21   15   16 1
    22   15   17 1
    23   15   38 1
    24   16   21 1
    25   17   18 1
    26   17   19 1
    27   17   39 1
    28   18   40 1
    29   19   20 1
    30   19   21 1
    31   19   41 1
    32   20   42 1
    33   21   22 1
    34   21   43 1
    35   22   23 ar
    36   22   31 ar
    37   23   24 ar
    38   23   44 1
    39   24   25 ar
    40   25   26 ar
    41   25   31 ar
    42   26   27 1
    43   26   28 ar
    44   27   45 1
    45   27   46 1
    46   28   29 ar
    47   28   48 1
    48   29   30 ar
    49   29   47 1
    50   30   31 ar
@<TRIPOS>SUBSTRUCTURE
     1 ACP         1 GROUP 0 A     ****
@<TRIPOS>MOLECULE
[[5-(6-amino-1,8-dihydropurine-6,8-diylium-7-id-9-yl)-3,4-dihydroxy-tetrahydrofuran-2-yl]methoxy-oxido-phosphoryl]oxy-(phosphonomethyl)phosphinate
   48    50     1     0     0
SMALL
USER_CHARGES

@<TRIPOS>ATOM
      1 PG          5.5964   -1.0182   -7.1914 P.3       1 ACP         1.6558
      2 O1G         5.6870   -2.4161   -7.7255 O.2       1 ACP        -0.9020
      3 O2G         6.1433    0.1384   -8.1780 O.3       1 ACP        -0.8036
      4 O3G         6.3949   -0.7501   -5.8130 O.3       1 ACP        -0.8036
      5 PB          2.8391   -1.3282   -5.5693 P.3       1 ACP         1.4945
      6 O1B         2.6582   -2.7527   -6.0401 O.co2     1 ACP        -0.8481
      7 O2B         1.6676   -0.4165   -5.2870 O.co2     1 ACP        -0.8481
      8 C3B         3.9166   -0.4744   -6.8066 C.3       1 ACP        -0.6636
      9 PA          4.4356   -0.0486   -3.4198 P.3       1 ACP         1.6023
     10 O1A         5.0324    0.9810   -4.3549 O.co2     1 ACP        -0.8673
     11 O2A         5.2456   -0.6069   -2.2700 O.co2     1 ACP        -0.8673
     12 O3A         3.8781   -1.2974   -4.3128 O.3       1 ACP        -0.8150
     13 O5'         3.0199    0.5139   -2.8245 O.3       1 ACP        -0.5522
     14 C5'         2.2816   -0.2918   -1.9206 C.3       1 ACP         0.2181
     15 C4'         2.7248    0.0226   -0.4980 C.3       1 ACP         0.0915
     16 O4'         2.4697    1.4219   -0.2462 O.3       1 ACP        -0.3675
     17 C3'         1.9404   -0.7419    0.5596 C.3       1 ACP         0.0748
     18 O3'         2.7418   -0.8086    1.7389 O.3       1 ACP        -0.5646
     19 C2'         0.7477    0.1630    0.7858 C.3       1 ACP         0.0804
     20 O2'         0.1373   -0.0577    2.0407 O.3       1 ACP        -0.5882
     21 C1'         1.3733    1.5427    0.6747 C.3       1 ACP         0.3809
     22 N9          0.4520    2.5240    0.1767 N.pl3     1 ACP        -0.4412
     23 C8          0.1798    2.8712   -1.2933 C.ar      1 ACP         0.1936
     24 N7         -0.7494    3.8400   -1.3610 N.2       1 ACP        -0.2746
     25 C5         -1.0173    4.0603   -0.0358 C.ar      1 ACP        -0.1386
     26 C6         -2.0105    5.0717    0.4241 C.ar      1 ACP         0.4778
     27 N6         -2.6723    5.7982   -0.4628 N.pl3     1 ACP        -0.8290
     28 N1         -2.1445    5.1522    1.7502 N.pl3     1 ACP        -0.6985
     29 C2         -1.3755    4.3143    2.6426 C.ar      1 ACP         0.6179
     30 N3         -0.5075    3.4292    2.2616 N.ar      1 ACP        -0.5105
     31 C4         -0.3667    3.3425    0.9070 C.ar      1 ACP         0.2753
     32 HOG2        7.0804    0.1127   -8.4666 H         1 ACP         0.4487
     33 HOG3        7.3650   -0.8929   -5.7903 H         1 ACP         0.4487
     34 H3B1        3.9739    0.5689   -6.4765 H         1 ACP         0.1088
     35 H3B2        3.3548   -0.4813   -7.7476 H         1 ACP         0.1088
     36 H5'1        1.2154   -0.0780   -2.0455 H         1 ACP         0.0327
     37 H5'2        2.4646   -1.3453   -2.1548 H         1 ACP         0.0327
     38 H4'         3.8046   -0.1390   -0.4011 H         1 ACP         0.1275
     39 H3'         1.6787   -1.7627    0.2719 H         1 ACP         0.0637
     40 HO3'        3.5553   -1.2733    1.4913 H         1 ACP         0.4127
     41 H2'         0.0002   -0.0084   -0.0014 H         1 ACP         0.0692
     42 HO2'       -0.1554   -0.9852    2.0577 H         1 ACP         0.4431
     43 H1'         1.7718    1.9211    1.6015 H         1 ACP         0.1199
     44 H8          0.6089    2.4651   -2.2147 H         1 ACP         0.2941
     45 HN61       -2.5055    5.6680   -1.4503 H         1 ACP         0.4754
     46 HN62       -3.3462    6.4841   -0.1542 H         1 ACP         0.4754
     47 H2         -1.5932    4.4937    3.7066 H         1 ACP         0.0886
     48 H48        -2.8098    5.8270    2.1160 H         1 ACP         0.4707
@<TRIPOS>BOND
     1    1    2 2
     2    1    3 1
     3    1    4 1
     4    1    8 1
     5    3   32 1
     6    4   33 1
     7    5    6 2
     8    5    7 1
     9    5    8 1
    10    5   12 1
    11    8   34 1
    12    8   35 1
    13    9   10 2
    14    9   11 1
    15    9   12 1
    16    9   13 1
    17   13   14 1
    18   14   15 1
    19   14   36 1
    20   14   37 1
    21   15   16 1
    22   15   17 1
    23   15   38 1
    24   16   21 1
    25   17   18 1
    26   17   19 1
    27   17   39 1
    28   18   40 1
    29   19   20 1
    30   19   21 1
    31   19   41 1
    32   20   42 1
    33   21   22 1
    34   21   43 1
    35   22   23 ar
    36   22   31 ar
    37   23   24 ar
    38   23   44 1
    39   24   25 ar
    40   25   26 ar
    41   25   31 ar
    42   26   27 1
    43   26   28 ar
    44   27   45 1
    45   27   46 1
    46   28   29 ar
    47   28   48 1
    48   29   30 ar
    49   29   47 1
    50   30   31 ar
@<TRIPOS>SUBSTRUCTURE
     1 ACP         1 GROUP 0 A     ****
@<TRIPOS>MOLECULE
[[5-(6-amino-1,8-dihydropurine-6,8-diylium-7-id-9-yl)-3,4-dihydroxy-tetrahydrofuran-2-yl]methoxy-oxido-phosphoryl]oxy-(phosphonomethyl)phosphinate
   48    50     1     0     0
SMALL
USER_CHARGES

@<TRIPOS>ATOM
      1 PG          2.2443   -4.7289   -3.4919 P.3       1 ACP         1.6558
      2 O1G         2.5110   -6.0646   -2.8657 O.2       1 ACP        -0.9020
      3 O2G         2.3708   -3.4598   -2.5001 O.3       1 ACP        -0.8036
      4 O3G         0.7794   -4.5520   -4.1495 O.3       1 ACP        -0.8036
      5 PB          3.2448   -2.7178   -5.7907 P.3       1 ACP         1.4945
      6 O1B         1.8725   -2.6686   -6.4217 O.co2     1 ACP        -0.8481
      7 O2B         4.5120   -2.5833   -6.6030 O.co2     1 ACP        -0.8481
      8 C3B         3.3590   -4.3061   -4.8499 C.3       1 ACP        -0.6636
      9 PA          3.0640   -0.0874   -4.4291 P.3       1 ACP         1.6023
     10 O1A         1.6224    0.2104   -4.7809 O.co2     1 ACP        -0.8673
     11 O2A         4.1945    0.5982   -5.1653 O.co2     1 ACP        -0.8673
     12 O3A         3.2953   -1.7018   -4.5162 O.3       1 ACP        -0.8150
     13 O5'         3.2885    0.1337   -2.8242 O.3       1 ACP        -0.5522
     14 C5'         2.2816   -0.2918   -1.9206 C.3       1 ACP         0.2181
     15 C4'         2.7248    0.0226   -0.4980 C.3       1 ACP         0.0915
     16 O4'         2.4697    1.4219   -0.2462 O.3       1 ACP        -0.3675
     17 C3'         1.9404   -0.7419    0.5596 C.3       1 ACP         0.0748
     18 O3'         2.7418   -0.8086    1.7389 O.3       1 ACP        -0.5646
     19 C2'         0.7477    0.1630    0.7858 C.3       1 ACP         0.0804
     20 O2'         0.1373   -0.0577    2.0407 O.3       1 ACP        -0.5882
     21 C1'         1.3733    1.5427    0.6747 C.3       1 ACP         0.3809
     22 N9          0.4520    2.5240    0.1767 N.pl3     1 ACP        -0.4412
     23 C8         -1.0660    2.5608    0.3999 C.ar      1 ACP         0.1936
     24 N7         -1.5852    3.6333   -0.2221 N.2       1 ACP        -0.2746
     25 C5         -0.4682    4.1996   -0.7771 C.ar      1 ACP        -0.1386
     26 C6         -0.5216    5.4476   -1.5899 C.ar      1 ACP         0.4778
     27 N6         -1.6813    6.0510   -1.7982 N.pl3     1 ACP        -0.8290
     28 N1          0.6621    5.8575   -2.0523 N.pl3     1 ACP        -0.6985
     29 C2          1.8795    5.1301   -1.7717 C.ar      1 ACP         0.6179
     30 N3          1.9458    4.0434   -1.0670 N.ar      1 ACP        -0.5105
     31 C4          0.7388    3.6199   -0.5917 C.ar      1 ACP         0.2753
     32 HOG2        1.7883   -3.4126   -1.7123 H         1 ACP         0.4487
     33 HOG3       -0.0124   -4.6489   -3.5789 H         1 ACP         0.4487
     34 H3B1        4.3831   -4.3452   -4.4619 H         1 ACP         0.1088
     35 H3B2        3.2698   -5.1032   -5.5968 H         1 ACP         0.1088
     36 H5'1        1.3501    0.2325   -2.1561 H         1 ACP         0.0327
     37 H5'2        2.1268   -1.3683   -2.0445 H         1 ACP         0.0327
     38 H4'         3.8046   -0.1390   -0.4011 H         1 ACP         0.1275
     39 H3'         1.6787   -1.7627    0.2719 H         1 ACP         0.0637
     40 HO3'        2.2231   -1.2979    2.3952 H         1 ACP         0.4127
     41 H2'         0.0002   -0.0084   -0.0014 H         1 ACP         0.0692
     42 HO2'       -0.1554   -0.9852    2.0577 H         1 ACP         0.4431
     43 H1'         1.7718    1.9211    1.6015 H         1 ACP         0.1199
     44 H8         -1.7235    1.8833    0.9537 H         1 ACP         0.2941
     45 HN61       -2.5296    5.6672   -1.4072 H         1 ACP         0.4754
     46 HN62       -1.7205    6.8969   -2.3483 H         1 ACP         0.4754
     47 H2          2.7750    5.5878   -2.2190 H         1 ACP         0.0886
     48 H48         0.6808    6.7046   -2.6128 H         1 ACP         0.4707
@<TRIPOS>BOND
     1    1    2 2
     2    1    3 1
     3    1    4 1
     4    1    8 1
     5    3   32 1
     6    4   33 1
     7    5    6 2
     8    5    7 1
     9    5    8 1
    10    5   12 1
    11    8   34 1
    12    8   35 1
    13    9   10 2
    14    9   11 1
    15    9   12 1
    16    9   13 1
    17   13   14 1
    18   14   15 1
    19   14   36 1
    20   14   37 1
    21   15   16 1
    22   15   17 1
    23   15   38 1
    24   16   21 1
    25   17   18 1
    26   17   19 1
    27   17   39 1
    28   18   40 1
    29   19   20 1
    30   19   21 1
    31   19   41 1
    32   20   42 1
    33   21   22 1
    34   21   43 1
    35   22   23 ar
    36   22   31 ar
    37   23   24 ar
    38   23   44 1
    39   24   25 ar
    40   25   26 ar
    41   25   31 ar
    42   26   27 1
    43   26   28 ar
    44   27   45 1
    45   27   46 1
    46   28   29 ar
    47   28   48 1
    48   29   30 ar
    49   29   47 1
    50   30   31 ar
@<TRIPOS>SUBSTRUCTURE
     1 ACP         1 GROUP 0 A     ****
@<TRIPOS>MOLECULE
[[5-(6-amino-1,8-dihydropurine-6,8-diylium-7-id-9-yl)-3,4-dihydroxy-tetrahydrofuran-2-yl]methoxy-oxido-phosphoryl]oxy-(phosphonomethyl)phosphinate
   48    50     1     0     0
SMALL
USER_CHARGES

@<TRIPOS>ATOM
      1 PG          1.9436    1.8092   -5.7646 P.3       1 ACP         1.6558
      2 O1G         0.9122    2.7573   -6.2981 O.2       1 ACP        -0.9020
      3 O2G         1.7352    1.3487   -4.2301 O.3       1 ACP        -0.8036
      4 O3G         3.4649    2.3516   -5.7948 O.3       1 ACP        -0.8036
      5 PB          3.2367   -1.1005   -6.2024 P.3       1 ACP         1.4945
      6 O1B         4.6288   -0.5248   -6.3206 O.co2     1 ACP        -0.8481
      7 O2B         2.8133   -2.3476   -6.9434 O.co2     1 ACP        -0.8481
      8 C3B         2.0478    0.2414   -6.6572 C.3       1 ACP        -0.6636
      9 PA          3.5289   -2.0703   -3.4131 P.3       1 ACP         1.6023
     10 O1A         4.9012   -1.4879   -3.1519 O.co2     1 ACP        -0.8673
     11 O2A         3.3595   -3.5474   -3.6950 O.co2     1 ACP        -0.8673
     12 O3A         2.8324   -1.2297   -4.6278 O.3       1 ACP        -0.8150
     13 O5'         2.5238   -1.6632   -2.1888 O.3       1 ACP        -0.5522
     14 C5'         2.2816   -0.2918   -1.9206 C.3       1 ACP         0.2181
     15 C4'         2.7248    0.0226   -0.4980 C.3       1 ACP         0.0915
     16 O4'         2.4697    1.4219   -0.2462 O.3       1 ACP        -0.3675
     17 C3'         1.9404   -0.7419    0.5596 C.3       1 ACP         0.0748
     18 O3'         2.7418   -0.8086    1.7389 O.3       1 ACP        -0.5646
     19 C2'         0.7477    0.1630    0.7858 C.3       1 ACP         0.0804
     20 O2'         0.1373   -0.0577    2.0407 O.3       1 ACP        -0.5882
     21 C1'         1.3733    1.5427    0.6747 C.3       1 ACP         0.3809
     22 N9          0.4520    2.5240    0.1767 N.pl3     1 ACP        -0.4412
     23 C8         -0.3054    2.4845   -1.1576 C.ar      1 ACP         0.1936
     24 N7         -1.0755    3.5806   -1.2691 N.2       1 ACP        -0.2746
     25 C5         -0.8043    4.2306   -0.0942 C.ar      1 ACP        -0.1386
     26 C6         -1.4324    5.5335    0.2646 C.ar      1 ACP         0.4778
     27 N6         -2.2885    6.1054   -0.5675 N.pl3     1 ACP        -0.8290
     28 N1         -1.0537    6.0229    1.4478 N.pl3     1 ACP        -0.6985
     29 C2         -0.1096    5.3242    2.2908 C.ar      1 ACP         0.6179
     30 N3          0.4468    4.1904    1.9960 N.ar      1 ACP        -0.5105
     31 C4          0.0631    3.6855    0.7877 C.ar      1 ACP         0.2753
     32 HOG2        1.7316    2.0311   -3.5256 H         1 ACP         0.4487
     33 HOG3        3.6889    3.1662   -5.2964 H         1 ACP         0.4487
     34 H3B1        1.0554   -0.2226   -6.6283 H         1 ACP         0.1088
     35 H3B2        2.2568    0.4835   -7.7054 H         1 ACP         0.1088
     36 H5'1        2.8430    0.3138   -2.6391 H         1 ACP         0.0327
     37 H5'2        1.2126   -0.0907   -2.0421 H         1 ACP         0.0327
     38 H4'         3.8046   -0.1390   -0.4011 H         1 ACP         0.1275
     39 H3'         1.6787   -1.7627    0.2719 H         1 ACP         0.0637
     40 HO3'        3.5553   -1.2733    1.4913 H         1 ACP         0.4127
     41 H2'         0.0002   -0.0084   -0.0014 H         1 ACP         0.0692
     42 HO2'       -0.1554   -0.9852    2.0577 H         1 ACP         0.4431
     43 H1'         1.7718    1.9211    1.6015 H         1 ACP         0.1199
     44 H8         -0.2991    1.7413   -1.9611 H         1 ACP         0.2941
     45 HN61       -2.5167    5.6603   -1.4447 H         1 ACP         0.4754
     46 HN62       -2.7159    6.9882   -0.3270 H         1 ACP         0.4754
     47 H2          0.1059    5.8491    3.2340 H         1 ACP         0.0886
     48 H48        -1.4532    6.9099    1.7401 H         1 ACP         0.4707
@<TRIPOS>BOND
     1    1    2 2
     2    1    3 1
     3    1    4 1
     4    1    8 1
     5    3   32 1
     6    4   33 1
     7    5    6 2
     8    5    7 1
     9    5    8 1
    10    5   12 1
    11    8   34 1
    12    8   35 1
    13    9   10 2
    14    9   11 1
    15    9   12 1
    16    9   13 1
    17   13   14 1
    18   14   15 1
    19   14   36 1
    20   14   37 1
    21   15   16 1
    22   15   17 1
    23   15   38 1
    24   16   21 1
    25   17   18 1
    26   17   19 1
    27   17   39 1
    28   18   40 1
    29   19   20 1
    30   19   21 1
    31   19   41 1
    32   20   42 1
    33   21   22 1
    34   21   43 1
    35   22   23 ar
    36   22   31 ar
    37   23   24 ar
    38   23   44 1
    39   24   25 ar
    40   25   26 ar
    41   25   31 ar
    42   26   27 1
    43   26   28 ar
    44   27   45 1
    45   27   46 1
    46   28   29 ar
    47   28   48 1
    48   29   30 ar
    49   29   47 1
    50   30   31 ar
@<TRIPOS>SUBSTRUCTURE
     1 ACP         1 GROUP 0 A     ****
@<TRIPOS>MOLECULE
[[5-(6-amino-1,8-dihydropurine-6,8-diylium-7-id-9-yl)-3,4-dihydroxy-tetrahydrofuran-2-yl]methoxy-oxido-phosphoryl]oxy-(phosphonomethyl)phosphinate
   48    50     1     0     0
SMALL
USER_CHARGES

@<TRIPOS>ATOM
      1 PG         -2.2696   -0.7724   -5.2157 P.3       1 ACP         1.6558
      2 O1G        -1.0884   -0.4752   -6.0896 O.2       1 ACP        -0.9020
      3 O2G        -3.0361   -2.1588   -5.5328 O.3       1 ACP        -0.8036
      4 O3G        -3.4501    0.3299   -5.2479 O.3       1 ACP        -0.8036
      5 PB         -0.6962   -2.1563   -2.7786 P.3       1 ACP         1.4945
      6 O1B        -1.2340   -3.5228   -3.1349 O.co2     1 ACP        -0.8481
      7 O2B        -0.3864   -1.7570   -1.3545 O.co2     1 ACP        -0.8481
      8 C3B        -1.8802   -0.9073   -3.4562 C.3       1 ACP        -0.6636
      9 PA          2.1358   -2.2685   -3.6578 P.3       1 ACP         1.6023
     10 O1A         2.9130   -1.5310   -4.7268 O.co2     1 ACP        -0.8673
     11 O2A         2.1809   -3.7788   -3.5758 O.co2     1 ACP        -0.8673
     12 O3A         0.5726   -1.8024   -3.7398 O.3       1 ACP        -0.8150
     13 O5'         2.5238   -1.6632   -2.1888 O.3       1 ACP        -0.5522
     14 C5'         2.2816   -0.2918   -1.9206 C.3       1 ACP         0.2181
     15 C4'         2.7248    0.0226   -0.4980 C.3       1 ACP         0.0915
     16 O4'         2.4697    1.4219   -0.2462 O.3       1 ACP        -0.3675
     17 C3'         1.9404   -0.7419    0.5596 C.3       1 ACP         0.0748
     18 O3'         2.7418   -0.8086    1.7389 O.3       1 ACP        -0.5646
     19 C2'         0.7477    0.1630    0.7858 C.3       1 ACP         0.0804
     20 O2'         0.1373   -0.0577    2.0407 O.3       1 ACP        -0.5882
     21 C1'         1.3733    1.5427    0.6747 C.3       1 ACP         0.3809
     22 N9          0.4520    2.5240    0.1767 N.pl3     1 ACP        -0.4412
     23 C8          0.5793    3.3338   -1.1209 C.ar      1 ACP         0.1936
     24 N7         -0.4807    4.1508   -1.2458 N.2       1 ACP        -0.2746
     25 C5         -1.1921    3.8572   -0.1126 C.ar      1 ACP        -0.1386
     26 C6         -2.4855    4.5203    0.2163 C.ar      1 ACP         0.4778
     27 N6         -2.9873    5.4319   -0.6020 N.pl3     1 ACP        -0.8290
     28 N1         -3.0414    4.1119    1.3596 N.pl3     1 ACP        -0.6985
     29 C2         -2.4169    3.1071    2.1904 C.ar      1 ACP         0.6179
     30 N3         -1.2928    2.5191    1.9210 N.ar      1 ACP        -0.5105
     31 C4         -0.7202    2.9326    0.7534 C.ar      1 ACP         0.2753
     32 HOG2       -3.4277   -2.2925   -6.4221 H         1 ACP         0.4487
     33 HOG3       -3.8959    0.5239   -6.0997 H         1 ACP         0.4487
     34 H3B1       -1.5019    0.0665   -3.1253 H         1 ACP         0.1088
     35 H3B2       -2.8272   -1.0773   -2.9313 H         1 ACP         0.1088
     36 H5'1        2.8430    0.3138   -2.6391 H         1 ACP         0.0327
     37 H5'2        1.2126   -0.0907   -2.0421 H         1 ACP         0.0327
     38 H4'         3.8046   -0.1390   -0.4011 H         1 ACP         0.1275
     39 H3'         1.6787   -1.7627    0.2719 H         1 ACP         0.0637
     40 HO3'        2.2231   -1.2979    2.3952 H         1 ACP         0.4127
     41 H2'         0.0002   -0.0084   -0.0014 H         1 ACP         0.0692
     42 HO2'       -0.1554   -0.9852    2.0577 H         1 ACP         0.4431
     43 H1'         1.7718    1.9211    1.6015 H         1 ACP         0.1199
     44 H8          1.3565    3.3309   -1.8916 H         1 ACP         0.2941
     45 HN61       -2.4952    5.6785   -1.4487 H         1 ACP         0.4754
     46 HN62       -3.8637    5.8828   -0.3819 H         1 ACP         0.4754
     47 H2         -2.9911    2.8734    3.1000 H         1 ACP         0.0886
     48 H48        -3.9253    4.5332    1.6302 H         1 ACP         0.4707
@<TRIPOS>BOND
     1    1    2 2
     2    1    3 1
     3    1    4 1
     4    1    8 1
     5    3   32 1
     6    4   33 1
     7    5    6 2
     8    5    7 1
     9    5    8 1
    10    5   12 1
    11    8   34 1
    12    8   35 1
    13    9   10 2
    14    9   11 1
    15    9   12 1
    16    9   13 1
    17   13   14 1
    18   14   15 1
    19   14   36 1
    20   14   37 1
    21   15   16 1
    22   15   17 1
    23   15   38 1
    24   16   21 1
    25   17   18 1
    26   17   19 1
    27   17   39 1
    28   18   40 1
    29   19   20 1
    30   19   21 1
    31   19   41 1
    32   20   42 1
    33   21   22 1
    34   21   43 1
    35   22   23 ar
    36   22   31 ar
    37   23   24 ar
    38   23   44 1
    39   24   25 ar
    40   25   26 ar
    41   25   31 ar
    42   26   27 1
    43   26   28 ar
    44   27   45 1
    45   27   46 1
    46   28   29 ar
    47   28   48 1
    48   29   30 ar
    49   29   47 1
    50   30   31 ar
@<TRIPOS>SUBSTRUCTURE
     1 ACP         1 GROUP 0 A     ****
@<TRIPOS>MOLECULE
[[5-(6-amino-1,8-dihydropurine-6,8-diylium-7-id-9-yl)-3,4-dihydroxy-tetrahydrofuran-2-yl]methoxy-oxido-phosphoryl]oxy-(phosphonomethyl)phosphinate
   48    50     1     0     0
SMALL
USER_CHARGES

@<TRIPOS>ATOM
      1 PG          2.2921   -4.1567   -6.8562 P.3       1 ACP         1.6558
      2 O1G         1.9538   -3.5373   -8.1788 O.2       1 ACP        -0.9020
      3 O2G         2.8604   -5.6676   -6.9225 O.3       1 ACP        -0.8036
      4 O3G         1.0695   -4.2569   -5.8050 O.3       1 ACP        -0.8036
      5 PB          3.3825   -1.5166   -5.3826 P.3       1 ACP         1.4945
      6 O1B         3.2040   -0.6805   -6.6287 O.co2     1 ACP        -0.8481
      7 O2B         4.4736   -1.2401   -4.3744 O.co2     1 ACP        -0.8481
      8 C3B         3.5652   -3.2757   -5.9241 C.3       1 ACP        -0.6636
      9 PA          1.5529   -2.4527   -3.2419 P.3       1 ACP         1.6023
     10 O1A         2.0063   -3.8917   -3.3620 O.co2     1 ACP        -0.8673
     11 O2A         0.1158   -2.1233   -2.9012 O.co2     1 ACP        -0.8673
     12 O3A         1.9500   -1.6683   -4.6184 O.3       1 ACP        -0.8150
     13 O5'         2.5238   -1.6632   -2.1888 O.3       1 ACP        -0.5522
     14 C5'         2.2816   -0.2918   -1.9206 C.3       1 ACP         0.2181
     15 C4'         2.7248    0.0226   -0.4980 C.3       1 ACP         0.0915
     16 O4'         2.4697    1.4219   -0.2462 O.3       1 ACP        -0.3675
     17 C3'         1.9404   -0.7419    0.5596 C.3       1 ACP         0.0748
     18 O3'         2.7418   -0.8086    1.7389 O.3       1 ACP        -0.5646
     19 C2'         0.7477    0.1630    0.7858 C.3       1 ACP         0.0804
     20 O2'         0.1373   -0.0577    2.0407 O.3       1 ACP        -0.5882
     21 C1'         1.3733    1.5427    0.6747 C.3       1 ACP         0.3809
     22 N9          0.4520    2.5240    0.1767 N.pl3     1 ACP        -0.4412
     23 C8          0.5793    3.3338   -1.1209 C.ar      1 ACP         0.1936
     24 N7         -0.4807    4.1508   -1.2458 N.2       1 ACP        -0.2746
     25 C5         -1.1921    3.8572   -0.1126 C.ar      1 ACP        -0.1386
     26 C6         -2.4855    4.5203    0.2163 C.ar      1 ACP         0.4778
     27 N6         -2.9873    5.4319   -0.6020 N.pl3     1 ACP        -0.8290
     28 N1         -3.0414    4.1119    1.3596 N.pl3     1 ACP        -0.6985
     29 C2         -2.4169    3.1071    2.1904 C.ar      1 ACP         0.6179
     30 N3         -1.2928    2.5191    1.9210 N.ar      1 ACP        -0.5105
     31 C4         -0.7202    2.9326    0.7534 C.ar      1 ACP         0.2753
     32 HOG2        2.2992   -6.3694   -7.3155 H         1 ACP         0.4487
     33 HOG3        0.2725   -4.7729   -6.0510 H         1 ACP         0.4487
     34 H3B1        3.7601   -3.8464   -5.0092 H         1 ACP         0.1088
     35 H3B2        4.4820   -3.3104   -6.5237 H         1 ACP         0.1088
     36 H5'1        2.8430    0.3138   -2.6391 H         1 ACP         0.0327
     37 H5'2        1.2126   -0.0907   -2.0421 H         1 ACP         0.0327
     38 H4'         3.8046   -0.1390   -0.4011 H         1 ACP         0.1275
     39 H3'         1.6787   -1.7627    0.2719 H         1 ACP         0.0637
     40 HO3'        2.2231   -1.2979    2.3952 H         1 ACP         0.4127
     41 H2'         0.0002   -0.0084   -0.0014 H         1 ACP         0.0692
     42 HO2'       -0.1554   -0.9852    2.0577 H         1 ACP         0.4431
     43 H1'         1.7718    1.9211    1.6015 H         1 ACP         0.1199
     44 H8          1.3565    3.3309   -1.8916 H         1 ACP         0.2941
     45 HN61       -2.4952    5.6785   -1.4487 H         1 ACP         0.4754
     46 HN62       -3.8637    5.8828   -0.3819 H         1 ACP         0.4754
     47 H2         -2.9911    2.8734    3.1000 H         1 ACP         0.0886
     48 H48        -3.9253    4.5332    1.6302 H         1 ACP         0.4707
@<TRIPOS>BOND
     1    1    2 2
     2    1    3 1
     3    1    4 1
     4    1    8 1
     5    3   32 1
     6    4   33 1
     7    5    6 2
     8    5    7 1
     9    5    8 1
    10    5   12 1
    11    8   34 1
    12    8   35 1
    13    9   10 2
    14    9   11 1
    15    9   12 1
    16    9   13 1
    17   13   14 1
    18   14   15 1
    19   14   36 1
    20   14   37 1
    21   15   16 1
    22   15   17 1
    23   15   38 1
    24   16   21 1
    25   17   18 1
    26   17   19 1
    27   17   39 1
    28   18   40 1
    29   19   20 1
    30   19   21 1
    31   19   41 1
    32   20   42 1
    33   21   22 1
    34   21   43 1
    35   22   23 ar
    36   22   31 ar
    37   23   24 ar
    38   23   44 1
    39   24   25 ar
    40   25   26 ar
    41   25   31 ar
    42   26   27 1
    43   26   28 ar
    44   27   45 1
    45   27   46 1
    46   28   29 ar
    47   28   48 1
    48   29   30 ar
    49   29   47 1
    50   30   31 ar
@<TRIPOS>SUBSTRUCTURE
     1 ACP         1 GROUP 0 A     ****
@<TRIPOS>MOLECULE
[[5-(6-amino-1,8-dihydropurine-6,8-diylium-7-id-9-yl)-3,4-dihydroxy-tetrahydrofuran-2-yl]methoxy-oxido-phosphoryl]oxy-(phosphonomethyl)phosphinate
   48    50     1     0     0
SMALL
USER_CHARGES

@<TRIPOS>ATOM
      1 PG         -1.4112    0.8238   -5.2243 P.3       1 ACP         1.6558
      2 O1G        -0.8685    1.2477   -3.8927 O.2       1 ACP        -0.9020
      3 O2G        -1.3624    1.9483   -6.3834 O.3       1 ACP        -0.8036
      4 O3G        -2.9545    0.3464   -5.2234 O.3       1 ACP        -0.8036
      5 PB          1.2542   -0.5445   -6.3877 P.3       1 ACP         1.4945
      6 O1B         1.4640    0.5772   -7.3783 O.co2     1 ACP        -0.8481
      7 O2B         1.6754   -1.9666   -6.6774 O.co2     1 ACP        -0.8481
      8 C3B        -0.5472   -0.5774   -5.9698 C.3       1 ACP        -0.6636
      9 PA          3.3317   -0.0541   -4.3262 P.3       1 ACP         1.6023
     10 O1A         4.1267    0.9765   -5.0986 O.co2     1 ACP        -0.8673
     11 O2A         3.8308   -1.4772   -4.2013 O.co2     1 ACP        -0.8673
     12 O3A         1.8123   -0.0905   -4.9242 O.3       1 ACP        -0.8150
     13 O5'         3.0199    0.5139   -2.8245 O.3       1 ACP        -0.5522
     14 C5'         2.2816   -0.2918   -1.9206 C.3       1 ACP         0.2181
     15 C4'         2.7248    0.0226   -0.4980 C.3       1 ACP         0.0915
     16 O4'         2.4697    1.4219   -0.2462 O.3       1 ACP        -0.3675
     17 C3'         1.9404   -0.7419    0.5596 C.3       1 ACP         0.0748
     18 O3'         2.7418   -0.8086    1.7389 O.3       1 ACP        -0.5646
     19 C2'         0.7477    0.1630    0.7858 C.3       1 ACP         0.0804
     20 O2'         0.1373   -0.0577    2.0407 O.3       1 ACP        -0.5882
     21 C1'         1.3733    1.5427    0.6747 C.3       1 ACP         0.3809
     22 N9          0.4520    2.5240    0.1767 N.pl3     1 ACP        -0.4412
     23 C8         -0.3054    2.4845   -1.1576 C.ar      1 ACP         0.1936
     24 N7         -1.0755    3.5806   -1.2691 N.2       1 ACP        -0.2746
     25 C5         -0.8043    4.2306   -0.0942 C.ar      1 ACP        -0.1386
     26 C6         -1.4324    5.5335    0.2646 C.ar      1 ACP         0.4778
     27 N6         -2.2885    6.1054   -0.5675 N.pl3     1 ACP        -0.8290
     28 N1         -1.0537    6.0229    1.4478 N.pl3     1 ACP        -0.6985
     29 C2         -0.1096    5.3242    2.2908 C.ar      1 ACP         0.6179
     30 N3          0.4468    4.1904    1.9960 N.ar      1 ACP        -0.5105
     31 C4          0.0631    3.6855    0.7877 C.ar      1 ACP         0.2753
     32 HOG2       -1.8456    2.7911   -6.2482 H         1 ACP         0.4487
     33 HOG3       -3.6471    0.9783   -4.9354 H         1 ACP         0.4487
     34 H3B1       -0.6796   -1.4391   -5.3059 H         1 ACP         0.1088
     35 H3B2       -1.0671   -0.8124   -6.9056 H         1 ACP         0.1088
     36 H5'1        1.2154   -0.0780   -2.0455 H         1 ACP         0.0327
     37 H5'2        2.4646   -1.3453   -2.1548 H         1 ACP         0.0327
     38 H4'         3.8046   -0.1390   -0.4011 H         1 ACP         0.1275
     39 H3'         1.6787   -1.7627    0.2719 H         1 ACP         0.0637
     40 HO3'        2.2231   -1.2979    2.3952 H         1 ACP         0.4127
     41 H2'         0.0002   -0.0084   -0.0014 H         1 ACP         0.0692
     42 HO2'       -0.1554   -0.9852    2.0577 H         1 ACP         0.4431
     43 H1'         1.7718    1.9211    1.6015 H         1 ACP         0.1199
     44 H8         -0.2991    1.7413   -1.9611 H         1 ACP         0.2941
     45 HN61       -2.5167    5.6603   -1.4447 H         1 ACP         0.4754
     46 HN62       -2.7159    6.9882   -0.3270 H         1 ACP         0.4754
     47 H2          0.1059    5.8491    3.2340 H         1 ACP         0.0886
     48 H48        -1.4532    6.9099    1.7401 H         1 ACP         0.4707
@<TRIPOS>BOND
     1    1    2 2
     2    1    3 1
     3    1    4 1
     4    1    8 1
     5    3   32 1
     6    4   33 1
     7    5    6 2
     8    5    7 1
     9    5    8 1
    10    5   12 1
    11    8   34 1
    12    8   35 1
    13    9   10 2
    14    9   11 1
    15    9   12 1
    16    9   13 1
    17   13   14 1
    18   14   15 1
    19   14   36 1
    20   14   37 1
    21   15   16 1
    22   15   17 1
    23   15   38 1
    24   16   21 1
    25   17   18 1
    26   17   19 1
    27   17   39 1
    28   18   40 1
    29   19   20 1
    30   19   21 1
    31   19   41 1
    32   20   42 1
    33   21   22 1
    34   21   43 1
    35   22   23 ar
    36   22   31 ar
    37   23   24 ar
    38   23   44 1
    39   24   25 ar
    40   25   26 ar
    41   25   31 ar
    42   26   27 1
    43   26   28 ar
    44   27   45 1
    45   27   46 1
    46   28   29 ar
    47   28   48 1
    48   29   30 ar
    49   29   47 1
    50   30   31 ar
@<TRIPOS>SUBSTRUCTURE
     1 ACP         1 GROUP 0 A     ****
@<TRIPOS>MOLECULE
[[5-(6-amino-1,8-dihydropurine-6,8-diylium-7-id-9-yl)-3,4-dihydroxy-tetrahydrofuran-2-yl]methoxy-oxido-phosphoryl]oxy-(phosphonomethyl)phosphinate
   48    50     1     0     0
SMALL
USER_CHARGES

@<TRIPOS>ATOM
      1 PG          6.3333   -0.2081   -6.2315 P.3       1 ACP         1.6558
      2 O1G         7.2972   -1.3021   -5.8831 O.2       1 ACP        -0.9020
      3 O2G         6.8685    0.8717   -7.3075 O.3       1 ACP        -0.8036
      4 O3G         5.8418    0.7032   -4.9915 O.3       1 ACP        -0.8036
      5 PB          3.6212   -1.9264   -6.0829 P.3       1 ACP         1.4945
      6 O1B         4.3794   -3.2011   -5.7935 O.co2     1 ACP        -0.8481
      7 O2B         2.3184   -1.9183   -6.8487 O.co2     1 ACP        -0.8481
      8 C3B         4.7827   -0.7843   -6.9590 C.3       1 ACP        -0.6636
      9 PA          2.7380    0.3741   -4.4295 P.3       1 ACP         1.6023
     10 O1A         1.2513    0.2198   -4.6674 O.co2     1 ACP        -0.8673
     11 O2A         3.5254    1.4501   -5.1452 O.co2     1 ACP        -0.8673
     12 O3A         3.4589   -1.0647   -4.7080 O.3       1 ACP        -0.8150
     13 O5'         3.0199    0.5139   -2.8245 O.3       1 ACP        -0.5522
     14 C5'         2.2816   -0.2918   -1.9206 C.3       1 ACP         0.2181
     15 C4'         2.7248    0.0226   -0.4980 C.3       1 ACP         0.0915
     16 O4'         2.4697    1.4219   -0.2462 O.3       1 ACP        -0.3675
     17 C3'         1.9404   -0.7419    0.5596 C.3       1 ACP         0.0748
     18 O3'         2.7418   -0.8086    1.7389 O.3       1 ACP        -0.5646
     19 C2'         0.7477    0.1630    0.7858 C.3       1 ACP         0.0804
     20 O2'         0.1373   -0.0577    2.0407 O.3       1 ACP        -0.5882
     21 C1'         1.3733    1.5427    0.6747 C.3       1 ACP         0.3809
     22 N9          0.4520    2.5240    0.1767 N.pl3     1 ACP        -0.4412
     23 C8         -0.3054    2.4845   -1.1576 C.ar      1 ACP         0.1936
     24 N7         -1.0755    3.5806   -1.2691 N.2       1 ACP        -0.2746
     25 C5         -0.8043    4.2306   -0.0942 C.ar      1 ACP        -0.1386
     26 C6         -1.4324    5.5335    0.2646 C.ar      1 ACP         0.4778
     27 N6         -2.2885    6.1054   -0.5675 N.pl3     1 ACP        -0.8290
     28 N1         -1.0537    6.0229    1.4478 N.pl3     1 ACP        -0.6985
     29 C2         -0.1096    5.3242    2.2908 C.ar      1 ACP         0.6179
     30 N3          0.4468    4.1904    1.9960 N.ar      1 ACP        -0.5105
     31 C4          0.0631    3.6855    0.7877 C.ar      1 ACP         0.2753
     32 HOG2        7.6711    1.3947   -7.0967 H         1 ACP         0.4487
     33 HOG3        6.5093    1.2037   -4.4758 H         1 ACP         0.4487
     34 H3B1        4.1884    0.1002   -7.2149 H         1 ACP         0.1088
     35 H3B2        5.0372   -1.2819   -7.9017 H         1 ACP         0.1088
     36 H5'1        1.2154   -0.0780   -2.0455 H         1 ACP         0.0327
     37 H5'2        2.4646   -1.3453   -2.1548 H         1 ACP         0.0327
     38 H4'         3.8046   -0.1390   -0.4011 H         1 ACP         0.1275
     39 H3'         1.6787   -1.7627    0.2719 H         1 ACP         0.0637
     40 HO3'        3.5553   -1.2733    1.4913 H         1 ACP         0.4127
     41 H2'         0.0002   -0.0084   -0.0014 H         1 ACP         0.0692
     42 HO2'       -0.1554   -0.9852    2.0577 H         1 ACP         0.4431
     43 H1'         1.7718    1.9211    1.6015 H         1 ACP         0.1199
     44 H8         -0.2991    1.7413   -1.9611 H         1 ACP         0.2941
     45 HN61       -2.5167    5.6603   -1.4447 H         1 ACP         0.4754
     46 HN62       -2.7159    6.9882   -0.3270 H         1 ACP         0.4754
     47 H2          0.1059    5.8491    3.2340 H         1 ACP         0.0886
     48 H48        -1.4532    6.9099    1.7401 H         1 ACP         0.4707
@<TRIPOS>BOND
     1    1    2 2
     2    1    3 1
     3    1    4 1
     4    1    8 1
     5    3   32 1
     6    4   33 1
     7    5    6 2
     8    5    7 1
     9    5    8 1
    10    5   12 1
    11    8   34 1
    12    8   35 1
    13    9   10 2
    14    9   11 1
    15    9   12 1
    16    9   13 1
    17   13   14 1
    18   14   15 1
    19   14   36 1
    20   14   37 1
    21   15   16 1
    22   15   17 1
    23   15   38 1
    24   16   21 1
    25   17   18 1
    26   17   19 1
    27   17   39 1
    28   18   40 1
    29   19   20 1
    30   19   21 1
    31   19   41 1
    32   20   42 1
    33   21   22 1
    34   21   43 1
    35   22   23 ar
    36   22   31 ar
    37   23   24 ar
    38   23   44 1
    39   24   25 ar
    40   25   26 ar
    41   25   31 ar
    42   26   27 1
    43   26   28 ar
    44   27   45 1
    45   27   46 1
    46   28   29 ar
    47   28   48 1
    48   29   30 ar
    49   29   47 1
    50   30   31 ar
@<TRIPOS>SUBSTRUCTURE
     1 ACP         1 GROUP 0 A     ****
@<TRIPOS>MOLECULE
[[5-(6-amino-1,8-dihydropurine-6,8-diylium-7-id-9-yl)-3,4-dihydroxy-tetrahydrofuran-2-yl]methoxy-oxido-phosphoryl]oxy-(phosphonomethyl)phosphinate
   48    50     1     0     0
SMALL
USER_CHARGES

@<TRIPOS>ATOM
      1 PG         -1.6452    0.8748   -3.2707 P.3       1 ACP         1.6558
      2 O1G        -1.5931    1.3471   -1.8489 O.2       1 ACP        -0.9020
      3 O2G        -0.3204    1.1670   -4.1480 O.3       1 ACP        -0.8036
      4 O3G        -2.8375    1.4983   -4.1647 O.3       1 ACP        -0.8036
      5 PB         -0.6962   -2.1563   -2.7786 P.3       1 ACP         1.4945
      6 O1B        -1.2340   -3.5228   -3.1349 O.co2     1 ACP        -0.8481
      7 O2B        -0.3864   -1.7570   -1.3545 O.co2     1 ACP        -0.8481
      8 C3B        -1.8802   -0.9073   -3.4562 C.3       1 ACP        -0.6636
      9 PA          2.1358   -2.2685   -3.6578 P.3       1 ACP         1.6023
     10 O1A         2.9130   -1.5310   -4.7268 O.co2     1 ACP        -0.8673
     11 O2A         2.1809   -3.7788   -3.5758 O.co2     1 ACP        -0.8673
     12 O3A         0.5726   -1.8024   -3.7398 O.3       1 ACP        -0.8150
     13 O5'         2.5238   -1.6632   -2.1888 O.3       1 ACP        -0.5522
     14 C5'         2.2816   -0.2918   -1.9206 C.3       1 ACP         0.2181
     15 C4'         2.7248    0.0226   -0.4980 C.3       1 ACP         0.0915
     16 O4'         2.4697    1.4219   -0.2462 O.3       1 ACP        -0.3675
     17 C3'         1.9404   -0.7419    0.5596 C.3       1 ACP         0.0748
     18 O3'         2.7418   -0.8086    1.7389 O.3       1 ACP        -0.5646
     19 C2'         0.7477    0.1630    0.7858 C.3       1 ACP         0.0804
     20 O2'         0.1373   -0.0577    2.0407 O.3       1 ACP        -0.5882
     21 C1'         1.3733    1.5427    0.6747 C.3       1 ACP         0.3809
     22 N9          0.4520    2.5240    0.1767 N.pl3     1 ACP        -0.4412
     23 C8          0.5793    3.3338   -1.1209 C.ar      1 ACP         0.1936
     24 N7         -0.4807    4.1508   -1.2458 N.2       1 ACP        -0.2746
     25 C5         -1.1921    3.8572   -0.1126 C.ar      1 ACP        -0.1386
     26 C6         -2.4855    4.5203    0.2163 C.ar      1 ACP         0.4778
     27 N6         -2.9873    5.4319   -0.6020 N.pl3     1 ACP        -0.8290
     28 N1         -3.0414    4.1119    1.3596 N.pl3     1 ACP        -0.6985
     29 C2         -2.4169    3.1071    2.1904 C.ar      1 ACP         0.6179
     30 N3         -1.2928    2.5191    1.9210 N.ar      1 ACP        -0.5105
     31 C4         -0.7202    2.9326    0.7534 C.ar      1 ACP         0.2753
     32 HOG2       -0.0289    2.0951   -4.2736 H         1 ACP         0.4487
     33 HOG3       -2.8775    2.4700   -4.2923 H         1 ACP         0.4487
     34 H3B1       -2.8543   -1.1597   -3.0223 H         1 ACP         0.1088
     35 H3B2       -1.9470   -1.1109   -4.5310 H         1 ACP         0.1088
     36 H5'1        2.8430    0.3138   -2.6391 H         1 ACP         0.0327
     37 H5'2        1.2126   -0.0907   -2.0421 H         1 ACP         0.0327
     38 H4'         3.8046   -0.1390   -0.4011 H         1 ACP         0.1275
     39 H3'         1.6787   -1.7627    0.2719 H         1 ACP         0.0637
     40 HO3'        2.2231   -1.2979    2.3952 H         1 ACP         0.4127
     41 H2'         0.0002   -0.0084   -0.0014 H         1 ACP         0.0692
     42 HO2'       -0.1554   -0.9852    2.0577 H         1 ACP         0.4431
     43 H1'         1.7718    1.9211    1.6015 H         1 ACP         0.1199
     44 H8          1.3565    3.3309   -1.8916 H         1 ACP         0.2941
     45 HN61       -2.4952    5.6785   -1.4487 H         1 ACP         0.4754
     46 HN62       -3.8637    5.8828   -0.3819 H         1 ACP         0.4754
     47 H2         -2.9911    2.8734    3.1000 H         1 ACP         0.0886
     48 H48        -3.9253    4.5332    1.6302 H         1 ACP         0.4707
@<TRIPOS>BOND
     1    1    2 2
     2    1    3 1
     3    1    4 1
     4    1    8 1
     5    3   32 1
     6    4   33 1
     7    5    6 2
     8    5    7 1
     9    5    8 1
    10    5   12 1
    11    8   34 1
    12    8   35 1
    13    9   10 2
    14    9   11 1
    15    9   12 1
    16    9   13 1
    17   13   14 1
    18   14   15 1
    19   14   36 1
    20   14   37 1
    21   15   16 1
    22   15   17 1
    23   15   38 1
    24   16   21 1
    25   17   18 1
    26   17   19 1
    27   17   39 1
    28   18   40 1
    29   19   20 1
    30   19   21 1
    31   19   41 1
    32   20   42 1
    33   21   22 1
    34   21   43 1
    35   22   23 ar
    36   22   31 ar
    37   23   24 ar
    38   23   44 1
    39   24   25 ar
    40   25   26 ar
    41   25   31 ar
    42   26   27 1
    43   26   28 ar
    44   27   45 1
    45   27   46 1
    46   28   29 ar
    47   28   48 1
    48   29   30 ar
    49   29   47 1
    50   30   31 ar
@<TRIPOS>SUBSTRUCTURE
     1 ACP         1 GROUP 0 A     ****
@<TRIPOS>MOLECULE
[[5-(6-amino-1,8-dihydropurine-6,8-diylium-7-id-9-yl)-3,4-dihydroxy-tetrahydrofuran-2-yl]methoxy-oxido-phosphoryl]oxy-(phosphonomethyl)phosphinate
   48    50     1     0     0
SMALL
USER_CHARGES

@<TRIPOS>ATOM
      1 PG         -0.6606   -2.6533   -4.1727 P.3       1 ACP         1.6558
      2 O1G        -1.2619   -4.0033   -3.9215 O.2       1 ACP        -0.9020
      3 O2G         0.3175   -2.1021   -3.0109 O.3       1 ACP        -0.8036
      4 O3G        -1.7193   -1.4508   -4.3795 O.3       1 ACP        -0.8036
      5 PB          1.2216   -1.0095   -6.1939 P.3       1 ACP         1.4945
      6 O1B         0.1546    0.0352   -6.4253 O.co2     1 ACP        -0.8481
      7 O2B         2.2203   -1.3934   -7.2610 O.co2     1 ACP        -0.8481
      8 C3B         0.3652   -2.5585   -5.6574 C.3       1 ACP        -0.6636
      9 PA          2.8587    0.6155   -4.3269 P.3       1 ACP         1.6023
     10 O1A         1.9171    1.7961   -4.2263 O.co2     1 ACP        -0.8673
     11 O2A         4.1093    0.6971   -5.1750 O.co2     1 ACP        -0.8673
     12 O3A         2.0007   -0.6924   -4.7968 O.3       1 ACP        -0.8150
     13 O5'         3.2885    0.1337   -2.8242 O.3       1 ACP        -0.5522
     14 C5'         2.2816   -0.2918   -1.9206 C.3       1 ACP         0.2181
     15 C4'         2.7248    0.0226   -0.4980 C.3       1 ACP         0.0915
     16 O4'         2.4697    1.4219   -0.2462 O.3       1 ACP        -0.3675
     17 C3'         1.9404   -0.7419    0.5596 C.3       1 ACP         0.0748
     18 O3'         2.7418   -0.8086    1.7389 O.3       1 ACP        -0.5646
     19 C2'         0.7477    0.1630    0.7858 C.3       1 ACP         0.0804
     20 O2'         0.1373   -0.0577    2.0407 O.3       1 ACP        -0.5882
     21 C1'         1.3733    1.5427    0.6747 C.3       1 ACP         0.3809
     22 N9          0.4520    2.5240    0.1767 N.pl3     1 ACP        -0.4412
     23 C8         -1.0660    2.5608    0.3999 C.ar      1 ACP         0.1936
     24 N7         -1.5852    3.6333   -0.2221 N.2       1 ACP        -0.2746
     25 C5         -0.4682    4.1996   -0.7771 C.ar      1 ACP        -0.1386
     26 C6         -0.5216    5.4476   -1.5899 C.ar      1 ACP         0.4778
     27 N6         -1.6813    6.0510   -1.7982 N.pl3     1 ACP        -0.8290
     28 N1          0.6621    5.8575   -2.0523 N.pl3     1 ACP        -0.6985
     29 C2          1.8795    5.1301   -1.7717 C.ar      1 ACP         0.6179
     30 N3          1.9458    4.0434   -1.0670 N.ar      1 ACP        -0.5105
     31 C4          0.7388    3.6199   -0.5917 C.ar      1 ACP         0.2753
     32 HOG2       -0.0419   -1.9774   -2.1068 H         1 ACP         0.4487
     33 HOG3       -2.3470   -1.2406   -3.6557 H         1 ACP         0.4487
     34 H3B1        1.1541   -3.3134   -5.5634 H         1 ACP         0.1088
     35 H3B2       -0.2656   -2.8593   -6.5016 H         1 ACP         0.1088
     36 H5'1        1.3501    0.2325   -2.1561 H         1 ACP         0.0327
     37 H5'2        2.1268   -1.3683   -2.0445 H         1 ACP         0.0327
     38 H4'         3.8046   -0.1390   -0.4011 H         1 ACP         0.1275
     39 H3'         1.6787   -1.7627    0.2719 H         1 ACP         0.0637
     40 HO3'        3.5553   -1.2733    1.4913 H         1 ACP         0.4127
     41 H2'         0.0002   -0.0084   -0.0014 H         1 ACP         0.0692
     42 HO2'        0.8091    0.1203    2.7213 H         1 ACP         0.4431
     43 H1'         1.7718    1.9211    1.6015 H         1 ACP         0.1199
     44 H8         -1.7235    1.8833    0.9537 H         1 ACP         0.2941
     45 HN61       -2.5296    5.6672   -1.4072 H         1 ACP         0.4754
     46 HN62       -1.7205    6.8969   -2.3483 H         1 ACP         0.4754
     47 H2          2.7750    5.5878   -2.2190 H         1 ACP         0.0886
     48 H48         0.6808    6.7046   -2.6128 H         1 ACP         0.4707
@<TRIPOS>BOND
     1    1    2 2
     2    1    3 1
     3    1    4 1
     4    1    8 1
     5    3   32 1
     6    4   33 1
     7    5    6 2
     8    5    7 1
     9    5    8 1
    10    5   12 1
    11    8   34 1
    12    8   35 1
    13    9   10 2
    14    9   11 1
    15    9   12 1
    16    9   13 1
    17   13   14 1
    18   14   15 1
    19   14   36 1
    20   14   37 1
    21   15   16 1
    22   15   17 1
    23   15   38 1
    24   16   21 1
    25   17   18 1
    26   17   19 1
    27   17   39 1
    28   18   40 1
    29   19   20 1
    30   19   21 1
    31   19   41 1
    32   20   42 1
    33   21   22 1
    34   21   43 1
    35   22   23 ar
    36   22   31 ar
    37   23   24 ar
    38   23   44 1
    39   24   25 ar
    40   25   26 ar
    41   25   31 ar
    42   26   27 1
    43   26   28 ar
    44   27   45 1
    45   27   46 1
    46   28   29 ar
    47   28   48 1
    48   29   30 ar
    49   29   47 1
    50   30   31 ar
@<TRIPOS>SUBSTRUCTURE
     1 ACP         1 GROUP 0 A     ****
@<TRIPOS>MOLECULE
[[5-(6-amino-1,8-dihydropurine-6,8-diylium-7-id-9-yl)-3,4-dihydroxy-tetrahydrofuran-2-yl]methoxy-oxido-phosphoryl]oxy-(phosphonomethyl)phosphinate
   48    50     1     0     0
SMALL
USER_CHARGES

@<TRIPOS>ATOM
      1 PG          2.1661   -6.2073   -1.8914 P.3       1 ACP         1.6558
      2 O1G         1.6201   -6.5808   -0.5462 O.2       1 ACP        -0.9020
      3 O2G         2.9248   -7.3920   -2.6858 O.3       1 ACP        -0.8036
      4 O3G         3.2405   -5.0009   -1.8925 O.3       1 ACP        -0.8036
      5 PB         -0.1611   -4.1760   -2.7793 P.3       1 ACP         1.4945
      6 O1B        -0.9520   -4.4447   -1.5201 O.co2     1 ACP        -0.8481
      7 O2B        -0.8259   -3.8354   -4.0929 O.co2     1 ACP        -0.8481
      8 C3B         0.9186   -5.6486   -3.0735 C.3       1 ACP        -0.6636
      9 PA          2.1608   -2.4473   -3.4325 P.3       1 ACP         1.6023
     10 O1A         1.4738   -1.5919   -4.4751 O.co2     1 ACP        -0.8673
     11 O2A         3.1184   -3.5441   -3.8445 O.co2     1 ACP        -0.8673
     12 O3A         1.0192   -3.0965   -2.4615 O.3       1 ACP        -0.8150
     13 O5'         2.9203   -1.4822   -2.3523 O.3       1 ACP        -0.5522
     14 C5'         2.2816   -0.2918   -1.9206 C.3       1 ACP         0.2181
     15 C4'         2.7248    0.0226   -0.4980 C.3       1 ACP         0.0915
     16 O4'         2.4697    1.4219   -0.2462 O.3       1 ACP        -0.3675
     17 C3'         1.9404   -0.7419    0.5596 C.3       1 ACP         0.0748
     18 O3'         2.7418   -0.8086    1.7389 O.3       1 ACP        -0.5646
     19 C2'         0.7477    0.1630    0.7858 C.3       1 ACP         0.0804
     20 O2'         0.1373   -0.0577    2.0407 O.3       1 ACP        -0.5882
     21 C1'         1.3733    1.5427    0.6747 C.3       1 ACP         0.3809
     22 N9          0.4520    2.5240    0.1767 N.pl3     1 ACP        -0.4412
     23 C8          0.1798    2.8712   -1.2933 C.ar      1 ACP         0.1936
     24 N7         -0.7494    3.8400   -1.3610 N.2       1 ACP        -0.2746
     25 C5         -1.0173    4.0603   -0.0358 C.ar      1 ACP        -0.1386
     26 C6         -2.0105    5.0717    0.4241 C.ar      1 ACP         0.4778
     27 N6         -2.6723    5.7982   -0.4628 N.pl3     1 ACP        -0.8290
     28 N1         -2.1445    5.1522    1.7502 N.pl3     1 ACP        -0.6985
     29 C2         -1.3755    4.3143    2.6426 C.ar      1 ACP         0.6179
     30 N3         -0.5075    3.4292    2.2616 N.ar      1 ACP        -0.5105
     31 C4         -0.3667    3.3425    0.9070 C.ar      1 ACP         0.2753
     32 HOG2        3.7131   -7.8089   -2.2772 H         1 ACP         0.4487
     33 HOG3        4.0701   -5.1030   -1.3794 H         1 ACP         0.4487
     34 H3B1        1.4271   -5.4553   -4.0248 H         1 ACP         0.1088
     35 H3B2        0.2371   -6.4905   -3.2410 H         1 ACP         0.1088
     36 H5'1        2.5581    0.5234   -2.5967 H         1 ACP         0.0327
     37 H5'2        1.1975   -0.4371   -1.9608 H         1 ACP         0.0327
     38 H4'         3.8046   -0.1390   -0.4011 H         1 ACP         0.1275
     39 H3'         1.6787   -1.7627    0.2719 H         1 ACP         0.0637
     40 HO3'        2.2231   -1.2979    2.3952 H         1 ACP         0.4127
     41 H2'         0.0002   -0.0084   -0.0014 H         1 ACP         0.0692
     42 HO2'       -0.6132    0.5577    2.1063 H         1 ACP         0.4431
     43 H1'         1.7718    1.9211    1.6015 H         1 ACP         0.1199
     44 H8          0.6089    2.4651   -2.2147 H         1 ACP         0.2941
     45 HN61       -2.5055    5.6680   -1.4503 H         1 ACP         0.4754
     46 HN62       -3.3462    6.4841   -0.1542 H         1 ACP         0.4754
     47 H2         -1.5932    4.4937    3.7066 H         1 ACP         0.0886
     48 H48        -2.8098    5.8270    2.1160 H         1 ACP         0.4707
@<TRIPOS>BOND
     1    1    2 2
     2    1    3 1
     3    1    4 1
     4    1    8 1
     5    3   32 1
     6    4   33 1
     7    5    6 2
     8    5    7 1
     9    5    8 1
    10    5   12 1
    11    8   34 1
    12    8   35 1
    13    9   10 2
    14    9   11 1
    15    9   12 1
    16    9   13 1
    17   13   14 1
    18   14   15 1
    19   14   36 1
    20   14   37 1
    21   15   16 1
    22   15   17 1
    23   15   38 1
    24   16   21 1
    25   17   18 1
    26   17   19 1
    27   17   39 1
    28   18   40 1
    29   19   20 1
    30   19   21 1
    31   19   41 1
    32   20   42 1
    33   21   22 1
    34   21   43 1
    35   22   23 ar
    36   22   31 ar
    37   23   24 ar
    38   23   44 1
    39   24   25 ar
    40   25   26 ar
    41   25   31 ar
    42   26   27 1
    43   26   28 ar
    44   27   45 1
    45   27   46 1
    46   28   29 ar
    47   28   48 1
    48   29   30 ar
    49   29   47 1
    50   30   31 ar
@<TRIPOS>SUBSTRUCTURE
     1 ACP         1 GROUP 0 A     ****
@<TRIPOS>MOLECULE
[[5-(6-amino-1,8-dihydropurine-6,8-diylium-7-id-9-yl)-3,4-dihydroxy-tetrahydrofuran-2-yl]methoxy-oxido-phosphoryl]oxy-(phosphonomethyl)phosphinate
   48    50     1     0     0
SMALL
USER_CHARGES

@<TRIPOS>ATOM
      1 PG          6.1861   -3.7552   -5.3929 P.3       1 ACP         1.6558
      2 O1G         7.1913   -2.9980   -6.2075 O.2       1 ACP        -0.9020
      3 O2G         6.4125   -5.3533   -5.3220 O.3       1 ACP        -0.8036
      4 O3G         4.6516   -3.6104   -5.8766 O.3       1 ACP        -0.8036
      5 PB          5.7038   -1.5526   -3.1025 P.3       1 ACP         1.4945
      6 O1B         6.7434   -0.6294   -3.6943 O.co2     1 ACP        -0.8481
      7 O2B         5.4271   -1.6107   -1.6180 O.co2     1 ACP        -0.8481
      8 C3B         6.1172   -3.2690   -3.6538 C.3       1 ACP        -0.6636
      9 PA          2.8590   -2.1285   -3.7205 P.3       1 ACP         1.6023
     10 O1A         3.0780   -3.6257   -3.7547 O.co2     1 ACP        -0.8673
     11 O2A         1.8554   -1.4750   -4.6455 O.co2     1 ACP        -0.8673
     12 O3A         4.3020   -1.3896   -3.9195 O.3       1 ACP        -0.8150
     13 O5'         2.5238   -1.6632   -2.1888 O.3       1 ACP        -0.5522
     14 C5'         2.2816   -0.2918   -1.9206 C.3       1 ACP         0.2181
     15 C4'         2.7248    0.0226   -0.4980 C.3       1 ACP         0.0915
     16 O4'         2.4697    1.4219   -0.2462 O.3       1 ACP        -0.3675
     17 C3'         1.9404   -0.7419    0.5596 C.3       1 ACP         0.0748
     18 O3'         2.7418   -0.8086    1.7389 O.3       1 ACP        -0.5646
     19 C2'         0.7477    0.1630    0.7858 C.3       1 ACP         0.0804
     20 O2'         0.1373   -0.0577    2.0407 O.3       1 ACP        -0.5882
     21 C1'         1.3733    1.5427    0.6747 C.3       1 ACP         0.3809
     22 N9          0.4520    2.5240    0.1767 N.pl3     1 ACP        -0.4412
     23 C8          0.5793    3.3338   -1.1209 C.ar      1 ACP         0.1936
     24 N7         -0.4807    4.1508   -1.2458 N.2       1 ACP        -0.2746
     25 C5         -1.1921    3.8572   -0.1126 C.ar      1 ACP        -0.1386
     26 C6         -2.4855    4.5203    0.2163 C.ar      1 ACP         0.4778
     27 N6         -2.9873    5.4319   -0.6020 N.pl3     1 ACP        -0.8290
     28 N1         -3.0414    4.1119    1.3596 N.pl3     1 ACP        -0.6985
     29 C2         -2.4169    3.1071    2.1904 C.ar      1 ACP         0.6179
     30 N3         -1.2928    2.5191    1.9210 N.ar      1 ACP        -0.5105
     31 C4         -0.7202    2.9326    0.7534 C.ar      1 ACP         0.2753
     32 HOG2        6.4021   -5.8720   -6.1544 H         1 ACP         0.4487
     33 HOG3        4.4096   -3.8994   -6.7821 H         1 ACP         0.4487
     34 H3B1        5.3902   -3.9209   -3.1564 H         1 ACP         0.1088
     35 H3B2        7.0979   -3.4946   -3.2196 H         1 ACP         0.1088
     36 H5'1        2.8430    0.3138   -2.6391 H         1 ACP         0.0327
     37 H5'2        1.2126   -0.0907   -2.0421 H         1 ACP         0.0327
     38 H4'         3.8046   -0.1390   -0.4011 H         1 ACP         0.1275
     39 H3'         1.6787   -1.7627    0.2719 H         1 ACP         0.0637
     40 HO3'        3.5553   -1.2733    1.4913 H         1 ACP         0.4127
     41 H2'         0.0002   -0.0084   -0.0014 H         1 ACP         0.0692
     42 HO2'       -0.1554   -0.9852    2.0577 H         1 ACP         0.4431
     43 H1'         1.7718    1.9211    1.6015 H         1 ACP         0.1199
     44 H8          1.3565    3.3309   -1.8916 H         1 ACP         0.2941
     45 HN61       -2.4952    5.6785   -1.4487 H         1 ACP         0.4754
     46 HN62       -3.8637    5.8828   -0.3819 H         1 ACP         0.4754
     47 H2         -2.9911    2.8734    3.1000 H         1 ACP         0.0886
     48 H48        -3.9253    4.5332    1.6302 H         1 ACP         0.4707
@<TRIPOS>BOND
     1    1    2 2
     2    1    3 1
     3    1    4 1
     4    1    8 1
     5    3   32 1
     6    4   33 1
     7    5    6 2
     8    5    7 1
     9    5    8 1
    10    5   12 1
    11    8   34 1
    12    8   35 1
    13    9   10 2
    14    9   11 1
    15    9   12 1
    16    9   13 1
    17   13   14 1
    18   14   15 1
    19   14   36 1
    20   14   37 1
    21   15   16 1
    22   15   17 1
    23   15   38 1
    24   16   21 1
    25   17   18 1
    26   17   19 1
    27   17   39 1
    28   18   40 1
    29   19   20 1
    30   19   21 1
    31   19   41 1
    32   20   42 1
    33   21   22 1
    34   21   43 1
    35   22   23 ar
    36   22   31 ar
    37   23   24 ar
    38   23   44 1
    39   24   25 ar
    40   25   26 ar
    41   25   31 ar
    42   26   27 1
    43   26   28 ar
    44   27   45 1
    45   27   46 1
    46   28   29 ar
    47   28   48 1
    48   29   30 ar
    49   29   47 1
    50   30   31 ar
@<TRIPOS>SUBSTRUCTURE
     1 ACP         1 GROUP 0 A     ****
@<TRIPOS>MOLECULE
[[5-(6-amino-1,8-dihydropurine-6,8-diylium-7-id-9-yl)-3,4-dihydroxy-tetrahydrofuran-2-yl]methoxy-oxido-phosphoryl]oxy-(phosphonomethyl)phosphinate
   48    50     1     0     0
SMALL
USER_CHARGES

@<TRIPOS>ATOM
      1 PG          6.3704   -1.9720   -5.8532 P.3       1 ACP         1.6558
      2 O1G         6.9087   -3.2686   -5.3275 O.2       1 ACP        -0.9020
      3 O2G         7.2834   -1.2432   -6.9692 O.3       1 ACP        -0.8036
      4 O3G         6.1334   -0.8202   -4.7456 O.3       1 ACP        -0.8036
      5 PB          3.2448   -2.7178   -5.7907 P.3       1 ACP         1.4945
      6 O1B         3.5336   -4.1263   -5.3255 O.co2     1 ACP        -0.8481
      7 O2B         2.0581   -2.3838   -6.6647 O.co2     1 ACP        -0.8481
      8 C3B         4.7587   -2.1059   -6.6594 C.3       1 ACP        -0.6636
      9 PA          3.0640   -0.0874   -4.4291 P.3       1 ACP         1.6023
     10 O1A         1.6224    0.2104   -4.7809 O.co2     1 ACP        -0.8673
     11 O2A         4.1945    0.5982   -5.1653 O.co2     1 ACP        -0.8673
     12 O3A         3.2953   -1.7018   -4.5162 O.3       1 ACP        -0.8150
     13 O5'         3.2885    0.1337   -2.8242 O.3       1 ACP        -0.5522
     14 C5'         2.2816   -0.2918   -1.9206 C.3       1 ACP         0.2181
     15 C4'         2.7248    0.0226   -0.4980 C.3       1 ACP         0.0915
     16 O4'         2.4697    1.4219   -0.2462 O.3       1 ACP        -0.3675
     17 C3'         1.9404   -0.7419    0.5596 C.3       1 ACP         0.0748
     18 O3'         2.7418   -0.8086    1.7389 O.3       1 ACP        -0.5646
     19 C2'         0.7477    0.1630    0.7858 C.3       1 ACP         0.0804
     20 O2'         0.1373   -0.0577    2.0407 O.3       1 ACP        -0.5882
     21 C1'         1.3733    1.5427    0.6747 C.3       1 ACP         0.3809
     22 N9          0.4520    2.5240    0.1767 N.pl3     1 ACP        -0.4412
     23 C8          0.5793    3.3338   -1.1209 C.ar      1 ACP         0.1936
     24 N7         -0.4807    4.1508   -1.2458 N.2       1 ACP        -0.2746
     25 C5         -1.1921    3.8572   -0.1126 C.ar      1 ACP        -0.1386
     26 C6         -2.4855    4.5203    0.2163 C.ar      1 ACP         0.4778
     27 N6         -2.9873    5.4319   -0.6020 N.pl3     1 ACP        -0.8290
     28 N1         -3.0414    4.1119    1.3596 N.pl3     1 ACP        -0.6985
     29 C2         -2.4169    3.1071    2.1904 C.ar      1 ACP         0.6179
     30 N3         -1.2928    2.5191    1.9210 N.ar      1 ACP        -0.5105
     31 C4         -0.7202    2.9326    0.7534 C.ar      1 ACP         0.2753
     32 HOG2        8.1992   -0.9805   -6.7362 H         1 ACP         0.4487
     33 HOG3        6.8978   -0.5021   -4.2198 H         1 ACP         0.4487
     34 H3B1        4.4969   -1.1133   -7.0428 H         1 ACP         0.1088
     35 H3B2        4.8895   -2.7600   -7.5290 H         1 ACP         0.1088
     36 H5'1        1.3501    0.2325   -2.1561 H         1 ACP         0.0327
     37 H5'2        2.1268   -1.3683   -2.0445 H         1 ACP         0.0327
     38 H4'         3.8046   -0.1390   -0.4011 H         1 ACP         0.1275
     39 H3'         1.6787   -1.7627    0.2719 H         1 ACP         0.0637
     40 HO3'        2.2231   -1.2979    2.3952 H         1 ACP         0.4127
     41 H2'         0.0002   -0.0084   -0.0014 H         1 ACP         0.0692
     42 HO2'       -0.1554   -0.9852    2.0577 H         1 ACP         0.4431
     43 H1'         1.7718    1.9211    1.6015 H         1 ACP         0.1199
     44 H8          1.3565    3.3309   -1.8916 H         1 ACP         0.2941
     45 HN61       -2.4952    5.6785   -1.4487 H         1 ACP         0.4754
     46 HN62       -3.8637    5.8828   -0.3819 H         1 ACP         0.4754
     47 H2         -2.9911    2.8734    3.1000 H         1 ACP         0.0886
     48 H48        -3.9253    4.5332    1.6302 H         1 ACP         0.4707
@<TRIPOS>BOND
     1    1    2 2
     2    1    3 1
     3    1    4 1
     4    1    8 1
     5    3   32 1
     6    4   33 1
     7    5    6 2
     8    5    7 1
     9    5    8 1
    10    5   12 1
    11    8   34 1
    12    8   35 1
    13    9   10 2
    14    9   11 1
    15    9   12 1
    16    9   13 1
    17   13   14 1
    18   14   15 1
    19   14   36 1
    20   14   37 1
    21   15   16 1
    22   15   17 1
    23   15   38 1
    24   16   21 1
    25   17   18 1
    26   17   19 1
    27   17   39 1
    28   18   40 1
    29   19   20 1
    30   19   21 1
    31   19   41 1
    32   20   42 1
    33   21   22 1
    34   21   43 1
    35   22   23 ar
    36   22   31 ar
    37   23   24 ar
    38   23   44 1
    39   24   25 ar
    40   25   26 ar
    41   25   31 ar
    42   26   27 1
    43   26   28 ar
    44   27   45 1
    45   27   46 1
    46   28   29 ar
    47   28   48 1
    48   29   30 ar
    49   29   47 1
    50   30   31 ar
@<TRIPOS>SUBSTRUCTURE
     1 ACP         1 GROUP 0 A     ****
@<TRIPOS>MOLECULE
[[5-(6-amino-1,8-dihydropurine-6,8-diylium-7-id-9-yl)-3,4-dihydroxy-tetrahydrofuran-2-yl]methoxy-oxido-phosphoryl]oxy-(phosphonomethyl)phosphinate
   48    50     1     0     0
SMALL
USER_CHARGES

@<TRIPOS>ATOM
      1 PG          3.9235    4.6305   -0.6898 P.3       1 ACP         1.6558
      2 O1G         4.3207    3.2162   -0.3910 O.2       1 ACP        -0.9020
      3 O2G         4.9973    5.4881   -1.5394 O.3       1 ACP        -0.8036
      4 O3G         3.6348    5.5568    0.6018 O.3       1 ACP        -0.8036
      5 PB          2.2100    4.0698   -3.3506 P.3       1 ACP         1.4945
      6 O1B         3.2670    4.6969   -4.2298 O.co2     1 ACP        -0.8481
      7 O2B         0.7394    4.1215   -3.6943 O.co2     1 ACP        -0.8481
      8 C3B         2.4063    4.7902   -1.6584 C.3       1 ACP        -0.6636
      9 PA          2.9201    1.2533   -3.9581 P.3       1 ACP         1.6023
     10 O1A         4.1467    1.5428   -4.7960 O.co2     1 ACP        -0.8673
     11 O2A         1.6158    0.8540   -4.6132 O.co2     1 ACP        -0.8673
     12 O3A         2.6393    2.5385   -2.9901 O.3       1 ACP        -0.8150
     13 O5'         3.2885    0.1337   -2.8242 O.3       1 ACP        -0.5522
     14 C5'         2.2816   -0.2918   -1.9206 C.3       1 ACP         0.2181
     15 C4'         2.7248    0.0226   -0.4980 C.3       1 ACP         0.0915
     16 O4'         2.4697    1.4219   -0.2462 O.3       1 ACP        -0.3675
     17 C3'         1.9404   -0.7419    0.5596 C.3       1 ACP         0.0748
     18 O3'         2.7418   -0.8086    1.7389 O.3       1 ACP        -0.5646
     19 C2'         0.7477    0.1630    0.7858 C.3       1 ACP         0.0804
     20 O2'         0.1373   -0.0577    2.0407 O.3       1 ACP        -0.5882
     21 C1'         1.3733    1.5427    0.6747 C.3       1 ACP         0.3809
     22 N9          0.4520    2.5240    0.1767 N.pl3     1 ACP        -0.4412
     23 C8         -0.3054    2.4845   -1.1576 C.ar      1 ACP         0.1936
     24 N7         -1.0755    3.5806   -1.2691 N.2       1 ACP        -0.2746
     25 C5         -0.8043    4.2306   -0.0942 C.ar      1 ACP        -0.1386
     26 C6         -1.4324    5.5335    0.2646 C.ar      1 ACP         0.4778
     27 N6         -2.2885    6.1054   -0.5675 N.pl3     1 ACP        -0.8290
     28 N1         -1.0537    6.0229    1.4478 N.pl3     1 ACP        -0.6985
     29 C2         -0.1096    5.3242    2.2908 C.ar      1 ACP         0.6179
     30 N3          0.4468    4.1904    1.9960 N.ar      1 ACP        -0.5105
     31 C4          0.0631    3.6855    0.7877 C.ar      1 ACP         0.2753
     32 HOG2        5.8957    5.6241   -1.1701 H         1 ACP         0.4487
     33 HOG3        4.3538    5.7015    1.2530 H         1 ACP         0.4487
     34 H3B1        1.5878    4.3701   -1.0630 H         1 ACP         0.1088
     35 H3B2        2.2061    5.8624   -1.7647 H         1 ACP         0.1088
     36 H5'1        1.3501    0.2325   -2.1561 H         1 ACP         0.0327
     37 H5'2        2.1268   -1.3683   -2.0445 H         1 ACP         0.0327
     38 H4'         3.8046   -0.1390   -0.4011 H         1 ACP         0.1275
     39 H3'         1.6787   -1.7627    0.2719 H         1 ACP         0.0637
     40 HO3'        3.5553   -1.2733    1.4913 H         1 ACP         0.4127
     41 H2'         0.0002   -0.0084   -0.0014 H         1 ACP         0.0692
     42 HO2'       -0.1554   -0.9852    2.0577 H         1 ACP         0.4431
     43 H1'         1.7718    1.9211    1.6015 H         1 ACP         0.1199
     44 H8         -0.2991    1.7413   -1.9611 H         1 ACP         0.2941
     45 HN61       -2.5167    5.6603   -1.4447 H         1 ACP         0.4754
     46 HN62       -2.7159    6.9882   -0.3270 H         1 ACP         0.4754
     47 H2          0.1059    5.8491    3.2340 H         1 ACP         0.0886
     48 H48        -1.4532    6.9099    1.7401 H         1 ACP         0.4707
@<TRIPOS>BOND
     1    1    2 2
     2    1    3 1
     3    1    4 1
     4    1    8 1
     5    3   32 1
     6    4   33 1
     7    5    6 2
     8    5    7 1
     9    5    8 1
    10    5   12 1
    11    8   34 1
    12    8   35 1
    13    9   10 2
    14    9   11 1
    15    9   12 1
    16    9   13 1
    17   13   14 1
    18   14   15 1
    19   14   36 1
    20   14   37 1
    21   15   16 1
    22   15   17 1
    23   15   38 1
    24   16   21 1
    25   17   18 1
    26   17   19 1
    27   17   39 1
    28   18   40 1
    29   19   20 1
    30   19   21 1
    31   19   41 1
    32   20   42 1
    33   21   22 1
    34   21   43 1
    35   22   23 ar
    36   22   31 ar
    37   23   24 ar
    38   23   44 1
    39   24   25 ar
    40   25   26 ar
    41   25   31 ar
    42   26   27 1
    43   26   28 ar
    44   27   45 1
    45   27   46 1
    46   28   29 ar
    47   28   48 1
    48   29   30 ar
    49   29   47 1
    50   30   31 ar
@<TRIPOS>SUBSTRUCTURE
     1 ACP         1 GROUP 0 A     ****
@<TRIPOS>MOLECULE
[[5-(6-amino-1,8-dihydropurine-6,8-diylium-7-id-9-yl)-3,4-dihydroxy-tetrahydrofuran-2-yl]methoxy-oxido-phosphoryl]oxy-(phosphonomethyl)phosphinate
   48    50     1     0     0
SMALL
USER_CHARGES

@<TRIPOS>ATOM
      1 PG          5.9759   -2.3792   -0.0167 P.3       1 ACP         1.6558
      2 O1G         5.4044   -1.6356    1.1528 O.2       1 ACP        -0.9020
      3 O2G         4.8940   -3.0948   -0.9799 O.3       1 ACP        -0.8036
      4 O3G         7.0010   -3.5714    0.3541 O.3       1 ACP        -0.8036
      5 PB          6.2125    0.0932   -2.0566 P.3       1 ACP         1.4945
      6 O1B         7.3138    0.6862   -2.9046 O.co2     1 ACP        -0.8481
      7 O2B         5.4406    0.9120   -1.0481 O.co2     1 ACP        -0.8481
      8 C3B         6.9318   -1.3540   -1.1571 C.3       1 ACP        -0.6636
      9 PA          3.9531   -0.2088   -3.9567 P.3       1 ACP         1.6023
     10 O1A         3.2272   -1.4155   -4.5112 O.co2     1 ACP        -0.8673
     11 O2A         4.4895    0.8608   -4.8830 O.co2     1 ACP        -0.8673
     12 O3A         5.1759   -0.7310   -3.0082 O.3       1 ACP        -0.8150
     13 O5'         3.0199    0.5139   -2.8245 O.3       1 ACP        -0.5522
     14 C5'         2.2816   -0.2918   -1.9206 C.3       1 ACP         0.2181
     15 C4'         2.7248    0.0226   -0.4980 C.3       1 ACP         0.0915
     16 O4'         2.4697    1.4219   -0.2462 O.3       1 ACP        -0.3675
     17 C3'         1.9404   -0.7419    0.5596 C.3       1 ACP         0.0748
     18 O3'         2.7418   -0.8086    1.7389 O.3       1 ACP        -0.5646
     19 C2'         0.7477    0.1630    0.7858 C.3       1 ACP         0.0804
     20 O2'         0.1373   -0.0577    2.0407 O.3       1 ACP        -0.5882
     21 C1'         1.3733    1.5427    0.6747 C.3       1 ACP         0.3809
     22 N9          0.4520    2.5240    0.1767 N.pl3     1 ACP        -0.4412
     23 C8          0.1798    2.8712   -1.2933 C.ar      1 ACP         0.1936
     24 N7         -0.7494    3.8400   -1.3610 N.2       1 ACP        -0.2746
     25 C5         -1.0173    4.0603   -0.0358 C.ar      1 ACP        -0.1386
     26 C6         -2.0105    5.0717    0.4241 C.ar      1 ACP         0.4778
     27 N6         -2.6723    5.7982   -0.4628 N.pl3     1 ACP        -0.8290
     28 N1         -2.1445    5.1522    1.7502 N.pl3     1 ACP        -0.6985
     29 C2         -1.3755    4.3143    2.6426 C.ar      1 ACP         0.6179
     30 N3         -0.5075    3.4292    2.2616 N.ar      1 ACP        -0.5105
     31 C4         -0.3667    3.3425    0.9070 C.ar      1 ACP         0.2753
     32 HOG2        4.2991   -3.7769   -0.6018 H         1 ACP         0.4487
     33 HOG3        6.6835   -4.3160    0.9079 H         1 ACP         0.4487
     34 H3B1        7.7924   -0.9593   -0.6054 H         1 ACP         0.1088
     35 H3B2        7.3276   -2.0209   -1.9316 H         1 ACP         0.1088
     36 H5'1        1.2154   -0.0780   -2.0455 H         1 ACP         0.0327
     37 H5'2        2.4646   -1.3453   -2.1548 H         1 ACP         0.0327
     38 H4'         3.8046   -0.1390   -0.4011 H         1 ACP         0.1275
     39 H3'         1.6787   -1.7627    0.2719 H         1 ACP         0.0637
     40 HO3'        2.2231   -1.2979    2.3952 H         1 ACP         0.4127
     41 H2'         0.0002   -0.0084   -0.0014 H         1 ACP         0.0692
     42 HO2'       -0.1554   -0.9852    2.0577 H         1 ACP         0.4431
     43 H1'         1.7718    1.9211    1.6015 H         1 ACP         0.1199
     44 H8          0.6089    2.4651   -2.2147 H         1 ACP         0.2941
     45 HN61       -2.5055    5.6680   -1.4503 H         1 ACP         0.4754
     46 HN62       -3.3462    6.4841   -0.1542 H         1 ACP         0.4754
     47 H2         -1.5932    4.4937    3.7066 H         1 ACP         0.0886
     48 H48        -2.8098    5.8270    2.1160 H         1 ACP         0.4707
@<TRIPOS>BOND
     1    1    2 2
     2    1    3 1
     3    1    4 1
     4    1    8 1
     5    3   32 1
     6    4   33 1
     7    5    6 2
     8    5    7 1
     9    5    8 1
    10    5   12 1
    11    8   34 1
    12    8   35 1
    13    9   10 2
    14    9   11 1
    15    9   12 1
    16    9   13 1
    17   13   14 1
    18   14   15 1
    19   14   36 1
    20   14   37 1
    21   15   16 1
    22   15   17 1
    23   15   38 1
    24   16   21 1
    25   17   18 1
    26   17   19 1
    27   17   39 1
    28   18   40 1
    29   19   20 1
    30   19   21 1
    31   19   41 1
    32   20   42 1
    33   21   22 1
    34   21   43 1
    35   22   23 ar
    36   22   31 ar
    37   23   24 ar
    38   23   44 1
    39   24   25 ar
    40   25   26 ar
    41   25   31 ar
    42   26   27 1
    43   26   28 ar
    44   27   45 1
    45   27   46 1
    46   28   29 ar
    47   28   48 1
    48   29   30 ar
    49   29   47 1
    50   30   31 ar
@<TRIPOS>SUBSTRUCTURE
     1 ACP         1 GROUP 0 A     ****
@<TRIPOS>MOLECULE
[[5-(6-amino-1,8-dihydropurine-6,8-diylium-7-id-9-yl)-3,4-dihydroxy-tetrahydrofuran-2-yl]methoxy-oxido-phosphoryl]oxy-(phosphonomethyl)phosphinate
   48    50     1     0     0
SMALL
USER_CHARGES

@<TRIPOS>ATOM
      1 PG          2.8370   -0.6555   -7.5445 P.3       1 ACP         1.6558
      2 O1G         1.9923   -1.8542   -7.8557 O.2       1 ACP        -0.9020
      3 O2G         3.8728   -0.2163   -8.7040 O.3       1 ACP        -0.8036
      4 O3G         3.7701   -0.7872   -6.2323 O.3       1 ACP        -0.8036
      5 PB          0.6609    1.0118   -5.8669 P.3       1 ACP         1.4945
      6 O1B        -0.4058   -0.0309   -6.1089 O.co2     1 ACP        -0.8481
      7 O2B         0.3354    2.4800   -5.7182 O.co2     1 ACP        -0.8481
      8 C3B         1.8988    0.8571   -7.2323 C.3       1 ACP        -0.6636
      9 PA          2.9201    1.2533   -3.9581 P.3       1 ACP         1.6023
     10 O1A         2.4599    2.5248   -3.2784 O.co2     1 ACP        -0.8673
     11 O2A         4.0401    1.2850   -4.9752 O.co2     1 ACP        -0.8673
     12 O3A         1.6231    0.5326   -4.6407 O.3       1 ACP        -0.8150
     13 O5'         3.2885    0.1337   -2.8242 O.3       1 ACP        -0.5522
     14 C5'         2.2816   -0.2918   -1.9206 C.3       1 ACP         0.2181
     15 C4'         2.7248    0.0226   -0.4980 C.3       1 ACP         0.0915
     16 O4'         2.4697    1.4219   -0.2462 O.3       1 ACP        -0.3675
     17 C3'         1.9404   -0.7419    0.5596 C.3       1 ACP         0.0748
     18 O3'         2.7418   -0.8086    1.7389 O.3       1 ACP        -0.5646
     19 C2'         0.7477    0.1630    0.7858 C.3       1 ACP         0.0804
     20 O2'         0.1373   -0.0577    2.0407 O.3       1 ACP        -0.5882
     21 C1'         1.3733    1.5427    0.6747 C.3       1 ACP         0.3809
     22 N9          0.4520    2.5240    0.1767 N.pl3     1 ACP        -0.4412
     23 C8         -0.3054    2.4845   -1.1576 C.ar      1 ACP         0.1936
     24 N7         -1.0755    3.5806   -1.2691 N.2       1 ACP        -0.2746
     25 C5         -0.8043    4.2306   -0.0942 C.ar      1 ACP        -0.1386
     26 C6         -1.4324    5.5335    0.2646 C.ar      1 ACP         0.4778
     27 N6         -2.2885    6.1054   -0.5675 N.pl3     1 ACP        -0.8290
     28 N1         -1.0537    6.0229    1.4478 N.pl3     1 ACP        -0.6985
     29 C2         -0.1096    5.3242    2.2908 C.ar      1 ACP         0.6179
     30 N3          0.4468    4.1904    1.9960 N.ar      1 ACP        -0.5105
     31 C4          0.0631    3.6855    0.7877 C.ar      1 ACP         0.2753
     32 HOG2        4.5592   -0.8539   -8.9944 H         1 ACP         0.4487
     33 HOG3        4.4428   -1.5002   -6.1972 H         1 ACP         0.4487
     34 H3B1        2.6198    1.6660   -7.0688 H         1 ACP         0.1088
     35 H3B2        1.3572    1.0936   -8.1553 H         1 ACP         0.1088
     36 H5'1        1.3501    0.2325   -2.1561 H         1 ACP         0.0327
     37 H5'2        2.1268   -1.3683   -2.0445 H         1 ACP         0.0327
     38 H4'         3.8046   -0.1390   -0.4011 H         1 ACP         0.1275
     39 H3'         1.6787   -1.7627    0.2719 H         1 ACP         0.0637
     40 HO3'        3.5553   -1.2733    1.4913 H         1 ACP         0.4127
     41 H2'         0.0002   -0.0084   -0.0014 H         1 ACP         0.0692
     42 HO2'       -0.1554   -0.9852    2.0577 H         1 ACP         0.4431
     43 H1'         1.7718    1.9211    1.6015 H         1 ACP         0.1199
     44 H8         -0.2991    1.7413   -1.9611 H         1 ACP         0.2941
     45 HN61       -2.5167    5.6603   -1.4447 H         1 ACP         0.4754
     46 HN62       -2.7159    6.9882   -0.3270 H         1 ACP         0.4754
     47 H2          0.1059    5.8491    3.2340 H         1 ACP         0.0886
     48 H48        -1.4532    6.9099    1.7401 H         1 ACP         0.4707
@<TRIPOS>BOND
     1    1    2 2
     2    1    3 1
     3    1    4 1
     4    1    8 1
     5    3   32 1
     6    4   33 1
     7    5    6 2
     8    5    7 1
     9    5    8 1
    10    5   12 1
    11    8   34 1
    12    8   35 1
    13    9   10 2
    14    9   11 1
    15    9   12 1
    16    9   13 1
    17   13   14 1
    18   14   15 1
    19   14   36 1
    20   14   37 1
    21   15   16 1
    22   15   17 1
    23   15   38 1
    24   16   21 1
    25   17   18 1
    26   17   19 1
    27   17   39 1
    28   18   40 1
    29   19   20 1
    30   19   21 1
    31   19   41 1
    32   20   42 1
    33   21   22 1
    34   21   43 1
    35   22   23 ar
    36   22   31 ar
    37   23   24 ar
    38   23   44 1
    39   24   25 ar
    40   25   26 ar
    41   25   31 ar
    42   26   27 1
    43   26   28 ar
    44   27   45 1
    45   27   46 1
    46   28   29 ar
    47   28   48 1
    48   29   30 ar
    49   29   47 1
    50   30   31 ar
@<TRIPOS>SUBSTRUCTURE
     1 ACP         1 GROUP 0 A     ****
@<TRIPOS>MOLECULE
[[5-(6-amino-1,8-dihydropurine-6,8-diylium-7-id-9-yl)-3,4-dihydroxy-tetrahydrofuran-2-yl]methoxy-oxido-phosphoryl]oxy-(phosphonomethyl)phosphinate
   48    50     1     0     0
SMALL
USER_CHARGES

@<TRIPOS>ATOM
      1 PG          3.3639   -4.5863   -1.9168 P.3       1 ACP         1.6558
      2 O1G         2.9391   -3.3110   -1.2532 O.2       1 ACP        -0.9020
      3 O2G         2.1684   -5.4746   -2.5428 O.3       1 ACP        -0.8036
      4 O3G         4.1561   -5.6291   -0.9709 O.3       1 ACP        -0.8036
      5 PB          4.0420   -3.3853   -4.8198 P.3       1 ACP         1.4945
      6 O1B         2.8281   -4.0415   -5.4357 O.co2     1 ACP        -0.8481
      7 O2B         5.3157   -3.1516   -5.5988 O.co2     1 ACP        -0.8481
      8 C3B         4.4882   -4.3616   -3.3136 C.3       1 ACP        -0.6636
      9 PA          4.4766   -0.9097   -3.2423 P.3       1 ACP         1.6023
     10 O1A         5.4238   -0.2320   -4.2087 O.co2     1 ACP        -0.8673
     11 O2A         4.9991   -1.5638   -1.9817 O.co2     1 ACP        -0.8673
     12 O3A         3.5948   -2.0096   -4.0671 O.3       1 ACP        -0.8150
     13 O5'         3.2885    0.1337   -2.8242 O.3       1 ACP        -0.5522
     14 C5'         2.2816   -0.2918   -1.9206 C.3       1 ACP         0.2181
     15 C4'         2.7248    0.0226   -0.4980 C.3       1 ACP         0.0915
     16 O4'         2.4697    1.4219   -0.2462 O.3       1 ACP        -0.3675
     17 C3'         1.9404   -0.7419    0.5596 C.3       1 ACP         0.0748
     18 O3'         2.7418   -0.8086    1.7389 O.3       1 ACP        -0.5646
     19 C2'         0.7477    0.1630    0.7858 C.3       1 ACP         0.0804
     20 O2'         0.1373   -0.0577    2.0407 O.3       1 ACP        -0.5882
     21 C1'         1.3733    1.5427    0.6747 C.3       1 ACP         0.3809
     22 N9          0.4520    2.5240    0.1767 N.pl3     1 ACP        -0.4412
     23 C8         -0.3054    2.4845   -1.1576 C.ar      1 ACP         0.1936
     24 N7         -1.0755    3.5806   -1.2691 N.2       1 ACP        -0.2746
     25 C5         -0.8043    4.2306   -0.0942 C.ar      1 ACP        -0.1386
     26 C6         -1.4324    5.5335    0.2646 C.ar      1 ACP         0.4778
     27 N6         -2.2885    6.1054   -0.5675 N.pl3     1 ACP        -0.8290
     28 N1         -1.0537    6.0229    1.4478 N.pl3     1 ACP        -0.6985
     29 C2         -0.1096    5.3242    2.2908 C.ar      1 ACP         0.6179
     30 N3          0.4468    4.1904    1.9960 N.ar      1 ACP        -0.5105
     31 C4          0.0631    3.6855    0.7877 C.ar      1 ACP         0.2753
     32 HOG2        1.4602   -5.8037   -1.9493 H         1 ACP         0.4487
     33 HOG3        3.7097   -5.9783   -0.1704 H         1 ACP         0.4487
     34 H3B1        5.4071   -3.9052   -2.9288 H         1 ACP         0.1088
     35 H3B2        4.7548   -5.3618   -3.6737 H         1 ACP         0.1088
     36 H5'1        1.3501    0.2325   -2.1561 H         1 ACP         0.0327
     37 H5'2        2.1268   -1.3683   -2.0445 H         1 ACP         0.0327
     38 H4'         3.8046   -0.1390   -0.4011 H         1 ACP         0.1275
     39 H3'         1.6787   -1.7627    0.2719 H         1 ACP         0.0637
     40 HO3'        2.2231   -1.2979    2.3952 H         1 ACP         0.4127
     41 H2'         0.0002   -0.0084   -0.0014 H         1 ACP         0.0692
     42 HO2'       -0.1554   -0.9852    2.0577 H         1 ACP         0.4431
     43 H1'         1.7718    1.9211    1.6015 H         1 ACP         0.1199
     44 H8         -0.2991    1.7413   -1.9611 H         1 ACP         0.2941
     45 HN61       -2.5167    5.6603   -1.4447 H         1 ACP         0.4754
     46 HN62       -2.7159    6.9882   -0.3270 H         1 ACP         0.4754
     47 H2          0.1059    5.8491    3.2340 H         1 ACP         0.0886
     48 H48        -1.4532    6.9099    1.7401 H         1 ACP         0.4707
@<TRIPOS>BOND
     1    1    2 2
     2    1    3 1
     3    1    4 1
     4    1    8 1
     5    3   32 1
     6    4   33 1
     7    5    6 2
     8    5    7 1
     9    5    8 1
    10    5   12 1
    11    8   34 1
    12    8   35 1
    13    9   10 2
    14    9   11 1
    15    9   12 1
    16    9   13 1
    17   13   14 1
    18   14   15 1
    19   14   36 1
    20   14   37 1
    21   15   16 1
    22   15   17 1
    23   15   38 1
    24   16   21 1
    25   17   18 1
    26   17   19 1
    27   17   39 1
    28   18   40 1
    29   19   20 1
    30   19   21 1
    31   19   41 1
    32   20   42 1
    33   21   22 1
    34   21   43 1
    35   22   23 ar
    36   22   31 ar
    37   23   24 ar
    38   23   44 1
    39   24   25 ar
    40   25   26 ar
    41   25   31 ar
    42   26   27 1
    43   26   28 ar
    44   27   45 1
    45   27   46 1
    46   28   29 ar
    47   28   48 1
    48   29   30 ar
    49   29   47 1
    50   30   31 ar
@<TRIPOS>SUBSTRUCTURE
     1 ACP         1 GROUP 0 A     ****
@<TRIPOS>MOLECULE
[[5-(6-amino-1,8-dihydropurine-6,8-diylium-7-id-9-yl)-3,4-dihydroxy-tetrahydrofuran-2-yl]methoxy-oxido-phosphoryl]oxy-(phosphonomethyl)phosphinate
   48    50     1     0     0
SMALL
USER_CHARGES

@<TRIPOS>ATOM
      1 PG         -0.7555   -4.9949   -1.0692 P.3       1 ACP         1.6558
      2 O1G        -1.6319   -4.5867    0.0765 O.2       1 ACP        -0.9020
      3 O2G        -0.6483   -6.5860   -1.3284 O.3       1 ACP        -0.8036
      4 O3G         0.7859   -4.5228   -0.9649 O.3       1 ACP        -0.8036
      5 PB         -1.4063   -2.5391   -3.0379 P.3       1 ACP         1.4945
      6 O1B        -2.4121   -1.9586   -2.0710 O.co2     1 ACP        -0.8481
      7 O2B        -1.5466   -2.3898   -4.5351 O.co2     1 ACP        -0.8481
      8 C3B        -1.2766   -4.3479   -2.6740 C.3       1 ACP        -0.6636
      9 PA          1.5529   -2.4527   -3.2419 P.3       1 ACP         1.6023
     10 O1A         1.6308   -1.7828   -4.5968 O.co2     1 ACP        -0.8673
     11 O2A         1.8077   -3.9377   -3.1006 O.co2     1 ACP        -0.8673
     12 O3A         0.0994   -2.1129   -2.5791 O.3       1 ACP        -0.8150
     13 O5'         2.5238   -1.6632   -2.1888 O.3       1 ACP        -0.5522
     14 C5'         2.2816   -0.2918   -1.9206 C.3       1 ACP         0.2181
     15 C4'         2.7248    0.0226   -0.4980 C.3       1 ACP         0.0915
     16 O4'         2.4697    1.4219   -0.2462 O.3       1 ACP        -0.3675
     17 C3'         1.9404   -0.7419    0.5596 C.3       1 ACP         0.0748
     18 O3'         2.7418   -0.8086    1.7389 O.3       1 ACP        -0.5646
     19 C2'         0.7477    0.1630    0.7858 C.3       1 ACP         0.0804
     20 O2'         0.1373   -0.0577    2.0407 O.3       1 ACP        -0.5882
     21 C1'         1.3733    1.5427    0.6747 C.3       1 ACP         0.3809
     22 N9          0.4520    2.5240    0.1767 N.pl3     1 ACP        -0.4412
     23 C8          0.5793    3.3338   -1.1209 C.ar      1 ACP         0.1936
     24 N7         -0.4807    4.1508   -1.2458 N.2       1 ACP        -0.2746
     25 C5         -1.1921    3.8572   -0.1126 C.ar      1 ACP        -0.1386
     26 C6         -2.4855    4.5203    0.2163 C.ar      1 ACP         0.4778
     27 N6         -2.9873    5.4319   -0.6020 N.pl3     1 ACP        -0.8290
     28 N1         -3.0414    4.1119    1.3596 N.pl3     1 ACP        -0.6985
     29 C2         -2.4169    3.1071    2.1904 C.ar      1 ACP         0.6179
     30 N3         -1.2928    2.5191    1.9210 N.ar      1 ACP        -0.5105
     31 C4         -0.7202    2.9326    0.7534 C.ar      1 ACP         0.2753
     32 HOG2       -0.2976   -7.1609   -0.6152 H         1 ACP         0.4487
     33 HOG3        1.3252   -4.8259   -0.2039 H         1 ACP         0.4487
     34 H3B1       -0.5951   -4.7522   -3.4310 H         1 ACP         0.1088
     35 H3B2       -2.2682   -4.7664   -2.8808 H         1 ACP         0.1088
     36 H5'1        2.8430    0.3138   -2.6391 H         1 ACP         0.0327
     37 H5'2        1.2126   -0.0907   -2.0421 H         1 ACP         0.0327
     38 H4'         3.8046   -0.1390   -0.4011 H         1 ACP         0.1275
     39 H3'         1.6787   -1.7627    0.2719 H         1 ACP         0.0637
     40 HO3'        2.2231   -1.2979    2.3952 H         1 ACP         0.4127
     41 H2'         0.0002   -0.0084   -0.0014 H         1 ACP         0.0692
     42 HO2'       -0.1554   -0.9852    2.0577 H         1 ACP         0.4431
     43 H1'         1.7718    1.9211    1.6015 H         1 ACP         0.1199
     44 H8          1.3565    3.3309   -1.8916 H         1 ACP         0.2941
     45 HN61       -2.4952    5.6785   -1.4487 H         1 ACP         0.4754
     46 HN62       -3.8637    5.8828   -0.3819 H         1 ACP         0.4754
     47 H2         -2.9911    2.8734    3.1000 H         1 ACP         0.0886
     48 H48        -3.9253    4.5332    1.6302 H         1 ACP         0.4707
@<TRIPOS>BOND
     1    1    2 2
     2    1    3 1
     3    1    4 1
     4    1    8 1
     5    3   32 1
     6    4   33 1
     7    5    6 2
     8    5    7 1
     9    5    8 1
    10    5   12 1
    11    8   34 1
    12    8   35 1
    13    9   10 2
    14    9   11 1
    15    9   12 1
    16    9   13 1
    17   13   14 1
    18   14   15 1
    19   14   36 1
    20   14   37 1
    21   15   16 1
    22   15   17 1
    23   15   38 1
    24   16   21 1
    25   17   18 1
    26   17   19 1
    27   17   39 1
    28   18   40 1
    29   19   20 1
    30   19   21 1
    31   19   41 1
    32   20   42 1
    33   21   22 1
    34   21   43 1
    35   22   23 ar
    36   22   31 ar
    37   23   24 ar
    38   23   44 1
    39   24   25 ar
    40   25   26 ar
    41   25   31 ar
    42   26   27 1
    43   26   28 ar
    44   27   45 1
    45   27   46 1
    46   28   29 ar
    47   28   48 1
    48   29   30 ar
    49   29   47 1
    50   30   31 ar
@<TRIPOS>SUBSTRUCTURE
     1 ACP         1 GROUP 0 A     ****
@<TRIPOS>MOLECULE
[[5-(6-amino-1,8-dihydropurine-6,8-diylium-7-id-9-yl)-3,4-dihydroxy-tetrahydrofuran-2-yl]methoxy-oxido-phosphoryl]oxy-(phosphonomethyl)phosphinate
   48    50     1     0     0
SMALL
USER_CHARGES

@<TRIPOS>ATOM
      1 PG         -2.0632   -1.8869   -2.7782 P.3       1 ACP         1.6558
      2 O1G        -2.4798   -0.8095   -3.7338 O.2       1 ACP        -0.9020
      3 O2G        -3.2346   -2.4589   -1.8237 O.3       1 ACP        -0.8036
      4 O3G        -0.8939   -1.4790   -1.7410 O.3       1 ACP        -0.8036
      5 PB          0.0815   -3.3628   -4.6628 P.3       1 ACP         1.4945
      6 O1B        -0.2184   -2.4396   -5.8209 O.co2     1 ACP        -0.8481
      7 O2B         0.5034   -4.7998   -4.8643 O.co2     1 ACP        -0.8481
      8 C3B        -1.4107   -3.3744   -3.5700 C.3       1 ACP        -0.6636
      9 PA          2.6171   -2.0488   -3.8563 P.3       1 ACP         1.6023
     10 O1A         2.5471   -0.8889   -4.8260 O.co2     1 ACP        -0.8673
     11 O2A         3.5415   -3.2178   -4.1184 O.co2     1 ACP        -0.8673
     12 O3A         1.1061   -2.6262   -3.6299 O.3       1 ACP        -0.8150
     13 O5'         2.9203   -1.4822   -2.3523 O.3       1 ACP        -0.5522
     14 C5'         2.2816   -0.2918   -1.9206 C.3       1 ACP         0.2181
     15 C4'         2.7248    0.0226   -0.4980 C.3       1 ACP         0.0915
     16 O4'         2.4697    1.4219   -0.2462 O.3       1 ACP        -0.3675
     17 C3'         1.9404   -0.7419    0.5596 C.3       1 ACP         0.0748
     18 O3'         2.7418   -0.8086    1.7389 O.3       1 ACP        -0.5646
     19 C2'         0.7477    0.1630    0.7858 C.3       1 ACP         0.0804
     20 O2'         0.1373   -0.0577    2.0407 O.3       1 ACP        -0.5882
     21 C1'         1.3733    1.5427    0.6747 C.3       1 ACP         0.3809
     22 N9          0.4520    2.5240    0.1767 N.pl3     1 ACP        -0.4412
     23 C8          0.5793    3.3338   -1.1209 C.ar      1 ACP         0.1936
     24 N7         -0.4807    4.1508   -1.2458 N.2       1 ACP        -0.2746
     25 C5         -1.1921    3.8572   -0.1126 C.ar      1 ACP        -0.1386
     26 C6         -2.4855    4.5203    0.2163 C.ar      1 ACP         0.4778
     27 N6         -2.9873    5.4319   -0.6020 N.pl3     1 ACP        -0.8290
     28 N1         -3.0414    4.1119    1.3596 N.pl3     1 ACP        -0.6985
     29 C2         -2.4169    3.1071    2.1904 C.ar      1 ACP         0.6179
     30 N3         -1.2928    2.5191    1.9210 N.ar      1 ACP        -0.5105
     31 C4         -0.7202    2.9326    0.7534 C.ar      1 ACP         0.2753
     32 HOG2       -3.6953   -1.8424   -1.2156 H         1 ACP         0.4487
     33 HOG3       -1.0464   -0.7334   -1.1222 H         1 ACP         0.4487
     34 H3B1       -1.1908   -4.1009   -2.7796 H         1 ACP         0.1088
     35 H3B2       -2.2212   -3.7964   -4.1751 H         1 ACP         0.1088
     36 H5'1        2.5581    0.5234   -2.5967 H         1 ACP         0.0327
     37 H5'2        1.1975   -0.4371   -1.9608 H         1 ACP         0.0327
     38 H4'         3.8046   -0.1390   -0.4011 H         1 ACP         0.1275
     39 H3'         1.6787   -1.7627    0.2719 H         1 ACP         0.0637
     40 HO3'        3.5553   -1.2733    1.4913 H         1 ACP         0.4127
     41 H2'         0.0002   -0.0084   -0.0014 H         1 ACP         0.0692
     42 HO2'        0.8091    0.1203    2.7213 H         1 ACP         0.4431
     43 H1'         1.7718    1.9211    1.6015 H         1 ACP         0.1199
     44 H8          1.3565    3.3309   -1.8916 H         1 ACP         0.2941
     45 HN61       -2.4952    5.6785   -1.4487 H         1 ACP         0.4754
     46 HN62       -3.8637    5.8828   -0.3819 H         1 ACP         0.4754
     47 H2         -2.9911    2.8734    3.1000 H         1 ACP         0.0886
     48 H48        -3.9253    4.5332    1.6302 H         1 ACP         0.4707
@<TRIPOS>BOND
     1    1    2 2
     2    1    3 1
     3    1    4 1
     4    1    8 1
     5    3   32 1
     6    4   33 1
     7    5    6 2
     8    5    7 1
     9    5    8 1
    10    5   12 1
    11    8   34 1
    12    8   35 1
    13    9   10 2
    14    9   11 1
    15    9   12 1
    16    9   13 1
    17   13   14 1
    18   14   15 1
    19   14   36 1
    20   14   37 1
    21   15   16 1
    22   15   17 1
    23   15   38 1
    24   16   21 1
    25   17   18 1
    26   17   19 1
    27   17   39 1
    28   18   40 1
    29   19   20 1
    30   19   21 1
    31   19   41 1
    32   20   42 1
    33   21   22 1
    34   21   43 1
    35   22   23 ar
    36   22   31 ar
    37   23   24 ar
    38   23   44 1
    39   24   25 ar
    40   25   26 ar
    41   25   31 ar
    42   26   27 1
    43   26   28 ar
    44   27   45 1
    45   27   46 1
    46   28   29 ar
    47   28   48 1
    48   29   30 ar
    49   29   47 1
    50   30   31 ar
@<TRIPOS>SUBSTRUCTURE
     1 ACP         1 GROUP 0 A     ****
@<TRIPOS>MOLECULE
[[5-(6-amino-1,8-dihydropurine-6,8-diylium-7-id-9-yl)-3,4-dihydroxy-tetrahydrofuran-2-yl]methoxy-oxido-phosphoryl]oxy-(phosphonomethyl)phosphinate
   48    50     1     0     0
SMALL
USER_CHARGES

@<TRIPOS>ATOM
      1 PG          4.0901   -2.2707   -6.9088 P.3       1 ACP         1.6558
      2 O1G         3.7147   -3.7190   -6.8146 O.2       1 ACP        -0.9020
      3 O2G         5.1738   -1.9075   -8.0506 O.3       1 ACP        -0.8036
      4 O3G         4.7230   -1.6303   -5.5675 O.3       1 ACP        -0.8036
      5 PB          1.2216   -1.0095   -6.1939 P.3       1 ACP         1.4945
      6 O1B         0.5792   -2.3750   -6.1151 O.co2     1 ACP        -0.8481
      7 O2B         0.4607    0.2158   -6.6449 O.co2     1 ACP        -0.8481
      8 C3B         2.7098   -1.1654   -7.2810 C.3       1 ACP        -0.6636
      9 PA          2.8587    0.6155   -4.3269 P.3       1 ACP         1.6023
     10 O1A         1.9171    1.7961   -4.2263 O.co2     1 ACP        -0.8673
     11 O2A         4.1093    0.6971   -5.1750 O.co2     1 ACP        -0.8673
     12 O3A         2.0007   -0.6924   -4.7968 O.3       1 ACP        -0.8150
     13 O5'         3.2885    0.1337   -2.8242 O.3       1 ACP        -0.5522
     14 C5'         2.2816   -0.2918   -1.9206 C.3       1 ACP         0.2181
     15 C4'         2.7248    0.0226   -0.4980 C.3       1 ACP         0.0915
     16 O4'         2.4697    1.4219   -0.2462 O.3       1 ACP        -0.3675
     17 C3'         1.9404   -0.7419    0.5596 C.3       1 ACP         0.0748
     18 O3'         2.7418   -0.8086    1.7389 O.3       1 ACP        -0.5646
     19 C2'         0.7477    0.1630    0.7858 C.3       1 ACP         0.0804
     20 O2'         0.1373   -0.0577    2.0407 O.3       1 ACP        -0.5882
     21 C1'         1.3733    1.5427    0.6747 C.3       1 ACP         0.3809
     22 N9          0.4520    2.5240    0.1767 N.pl3     1 ACP        -0.4412
     23 C8          0.5793    3.3338   -1.1209 C.ar      1 ACP         0.1936
     24 N7         -0.4807    4.1508   -1.2458 N.2       1 ACP        -0.2746
     25 C5         -1.1921    3.8572   -0.1126 C.ar      1 ACP        -0.1386
     26 C6         -2.4855    4.5203    0.2163 C.ar      1 ACP         0.4778
     27 N6         -2.9873    5.4319   -0.6020 N.pl3     1 ACP        -0.8290
     28 N1         -3.0414    4.1119    1.3596 N.pl3     1 ACP        -0.6985
     29 C2         -2.4169    3.1071    2.1904 C.ar      1 ACP         0.6179
     30 N3         -1.2928    2.5191    1.9210 N.ar      1 ACP        -0.5105
     31 C4         -0.7202    2.9326    0.7534 C.ar      1 ACP         0.2753
     32 HOG2        6.0607   -2.3248   -8.0138 H         1 ACP         0.4487
     33 HOG3        5.5503   -2.0113   -5.2037 H         1 ACP         0.4487
     34 H3B1        3.1138   -0.1510   -7.3740 H         1 ACP         0.1088
     35 H3B2        2.3300   -1.4496   -8.2690 H         1 ACP         0.1088
     36 H5'1        1.3501    0.2325   -2.1561 H         1 ACP         0.0327
     37 H5'2        2.1268   -1.3683   -2.0445 H         1 ACP         0.0327
     38 H4'         3.8046   -0.1390   -0.4011 H         1 ACP         0.1275
     39 H3'         1.6787   -1.7627    0.2719 H         1 ACP         0.0637
     40 HO3'        3.5553   -1.2733    1.4913 H         1 ACP         0.4127
     41 H2'         0.0002   -0.0084   -0.0014 H         1 ACP         0.0692
     42 HO2'        0.8091    0.1203    2.7213 H         1 ACP         0.4431
     43 H1'         1.7718    1.9211    1.6015 H         1 ACP         0.1199
     44 H8          1.3565    3.3309   -1.8916 H         1 ACP         0.2941
     45 HN61       -2.4952    5.6785   -1.4487 H         1 ACP         0.4754
     46 HN62       -3.8637    5.8828   -0.3819 H         1 ACP         0.4754
     47 H2         -2.9911    2.8734    3.1000 H         1 ACP         0.0886
     48 H48        -3.9253    4.5332    1.6302 H         1 ACP         0.4707
@<TRIPOS>BOND
     1    1    2 2
     2    1    3 1
     3    1    4 1
     4    1    8 1
     5    3   32 1
     6    4   33 1
     7    5    6 2
     8    5    7 1
     9    5    8 1
    10    5   12 1
    11    8   34 1
    12    8   35 1
    13    9   10 2
    14    9   11 1
    15    9   12 1
    16    9   13 1
    17   13   14 1
    18   14   15 1
    19   14   36 1
    20   14   37 1
    21   15   16 1
    22   15   17 1
    23   15   38 1
    24   16   21 1
    25   17   18 1
    26   17   19 1
    27   17   39 1
    28   18   40 1
    29   19   20 1
    30   19   21 1
    31   19   41 1
    32   20   42 1
    33   21   22 1
    34   21   43 1
    35   22   23 ar
    36   22   31 ar
    37   23   24 ar
    38   23   44 1
    39   24   25 ar
    40   25   26 ar
    41   25   31 ar
    42   26   27 1
    43   26   28 ar
    44   27   45 1
    45   27   46 1
    46   28   29 ar
    47   28   48 1
    48   29   30 ar
    49   29   47 1
    50   30   31 ar
@<TRIPOS>SUBSTRUCTURE
     1 ACP         1 GROUP 0 A     ****
@<TRIPOS>MOLECULE
[[5-(6-amino-1,8-dihydropurine-6,8-diylium-7-id-9-yl)-3,4-dihydroxy-tetrahydrofuran-2-yl]methoxy-oxido-phosphoryl]oxy-(phosphonomethyl)phosphinate
   48    50     1     0     0
SMALL
USER_CHARGES

@<TRIPOS>ATOM
      1 PG          7.6435   -2.7842   -2.0019 P.3       1 ACP         1.6558
      2 O1G         8.8040   -2.4612   -2.8942 O.2       1 ACP        -0.9020
      3 O2G         7.9613   -3.8081   -0.7932 O.3       1 ACP        -0.8036
      4 O3G         6.3682   -3.4494   -2.7373 O.3       1 ACP        -0.8036
      5 PB          6.2125    0.0932   -2.0566 P.3       1 ACP         1.4945
      6 O1B         7.3138    0.6862   -2.9046 O.co2     1 ACP        -0.8481
      7 O2B         5.4406    0.9120   -1.0481 O.co2     1 ACP        -0.8481
      8 C3B         6.9318   -1.3540   -1.1571 C.3       1 ACP        -0.6636
      9 PA          3.9531   -0.2088   -3.9567 P.3       1 ACP         1.6023
     10 O1A         3.2272   -1.4155   -4.5112 O.co2     1 ACP        -0.8673
     11 O2A         4.4895    0.8608   -4.8830 O.co2     1 ACP        -0.8673
     12 O3A         5.1759   -0.7310   -3.0082 O.3       1 ACP        -0.8150
     13 O5'         3.0199    0.5139   -2.8245 O.3       1 ACP        -0.5522
     14 C5'         2.2816   -0.2918   -1.9206 C.3       1 ACP         0.2181
     15 C4'         2.7248    0.0226   -0.4980 C.3       1 ACP         0.0915
     16 O4'         2.4697    1.4219   -0.2462 O.3       1 ACP        -0.3675
     17 C3'         1.9404   -0.7419    0.5596 C.3       1 ACP         0.0748
     18 O3'         2.7418   -0.8086    1.7389 O.3       1 ACP        -0.5646
     19 C2'         0.7477    0.1630    0.7858 C.3       1 ACP         0.0804
     20 O2'         0.1373   -0.0577    2.0407 O.3       1 ACP        -0.5882
     21 C1'         1.3733    1.5427    0.6747 C.3       1 ACP         0.3809
     22 N9          0.4520    2.5240    0.1767 N.pl3     1 ACP        -0.4412
     23 C8          0.1798    2.8712   -1.2933 C.ar      1 ACP         0.1936
     24 N7         -0.7494    3.8400   -1.3610 N.2       1 ACP        -0.2746
     25 C5         -1.0173    4.0603   -0.0358 C.ar      1 ACP        -0.1386
     26 C6         -2.0105    5.0717    0.4241 C.ar      1 ACP         0.4778
     27 N6         -2.6723    5.7982   -0.4628 N.pl3     1 ACP        -0.8290
     28 N1         -2.1445    5.1522    1.7502 N.pl3     1 ACP        -0.6985
     29 C2         -1.3755    4.3143    2.6426 C.ar      1 ACP         0.6179
     30 N3         -0.5075    3.4292    2.2616 N.ar      1 ACP        -0.5105
     31 C4         -0.3667    3.3425    0.9070 C.ar      1 ACP         0.2753
     32 HOG2        8.2849   -4.7091   -1.0066 H         1 ACP         0.4487
     33 HOG3        6.4822   -4.3030   -3.2067 H         1 ACP         0.4487
     34 H3B1        6.1331   -1.7200   -0.5023 H         1 ACP         0.1088
     35 H3B2        7.7141   -0.9440   -0.5082 H         1 ACP         0.1088
     36 H5'1        1.2154   -0.0780   -2.0455 H         1 ACP         0.0327
     37 H5'2        2.4646   -1.3453   -2.1548 H         1 ACP         0.0327
     38 H4'         3.8046   -0.1390   -0.4011 H         1 ACP         0.1275
     39 H3'         1.6787   -1.7627    0.2719 H         1 ACP         0.0637
     40 HO3'        2.2231   -1.2979    2.3952 H         1 ACP         0.4127
     41 H2'         0.0002   -0.0084   -0.0014 H         1 ACP         0.0692
     42 HO2'       -0.6132    0.5577    2.1063 H         1 ACP         0.4431
     43 H1'         1.7718    1.9211    1.6015 H         1 ACP         0.1199
     44 H8          0.6089    2.4651   -2.2147 H         1 ACP         0.2941
     45 HN61       -2.5055    5.6680   -1.4503 H         1 ACP         0.4754
     46 HN62       -3.3462    6.4841   -0.1542 H         1 ACP         0.4754
     47 H2         -1.5932    4.4937    3.7066 H         1 ACP         0.0886
     48 H48        -2.8098    5.8270    2.1160 H         1 ACP         0.4707
@<TRIPOS>BOND
     1    1    2 2
     2    1    3 1
     3    1    4 1
     4    1    8 1
     5    3   32 1
     6    4   33 1
     7    5    6 2
     8    5    7 1
     9    5    8 1
    10    5   12 1
    11    8   34 1
    12    8   35 1
    13    9   10 2
    14    9   11 1
    15    9   12 1
    16    9   13 1
    17   13   14 1
    18   14   15 1
    19   14   36 1
    20   14   37 1
    21   15   16 1
    22   15   17 1
    23   15   38 1
    24   16   21 1
    25   17   18 1
    26   17   19 1
    27   17   39 1
    28   18   40 1
    29   19   20 1
    30   19   21 1
    31   19   41 1
    32   20   42 1
    33   21   22 1
    34   21   43 1
    35   22   23 ar
    36   22   31 ar
    37   23   24 ar
    38   23   44 1
    39   24   25 ar
    40   25   26 ar
    41   25   31 ar
    42   26   27 1
    43   26   28 ar
    44   27   45 1
    45   27   46 1
    46   28   29 ar
    47   28   48 1
    48   29   30 ar
    49   29   47 1
    50   30   31 ar
@<TRIPOS>SUBSTRUCTURE
     1 ACP         1 GROUP 0 A     ****
@<TRIPOS>MOLECULE
[[5-(6-amino-1,8-dihydropurine-6,8-diylium-7-id-9-yl)-3,4-dihydroxy-tetrahydrofuran-2-yl]methoxy-oxido-phosphoryl]oxy-(phosphonomethyl)phosphinate
   48    50     1     0     0
SMALL
USER_CHARGES

@<TRIPOS>ATOM
      1 PG          1.5515   -4.7440   -5.7484 P.3       1 ACP         1.6558
      2 O1G         0.2107   -4.5047   -6.3750 O.2       1 ACP        -0.9020
      3 O2G         2.1455   -6.2356   -5.9287 O.3       1 ACP        -0.8036
      4 O3G         1.6252   -4.4963   -4.1538 O.3       1 ACP        -0.8036
      5 PB          2.8303   -1.8452   -6.2884 P.3       1 ACP         1.4945
      6 O1B         1.6037   -1.3832   -7.0405 O.co2     1 ACP        -0.8481
      7 O2B         4.2168   -1.3437   -6.6197 O.co2     1 ACP        -0.8481
      8 C3B         2.8729   -3.6914   -6.3900 C.3       1 ACP        -0.6636
      9 PA          3.5289   -2.0703   -3.4131 P.3       1 ACP         1.6023
     10 O1A         4.7102   -1.1244   -3.4296 O.co2     1 ACP        -0.8673
     11 O2A         3.7415   -3.5681   -3.3745 O.co2     1 ACP        -0.8673
     12 O3A         2.5658   -1.7182   -4.6843 O.3       1 ACP        -0.8150
     13 O5'         2.5238   -1.6632   -2.1888 O.3       1 ACP        -0.5522
     14 C5'         2.2816   -0.2918   -1.9206 C.3       1 ACP         0.2181
     15 C4'         2.7248    0.0226   -0.4980 C.3       1 ACP         0.0915
     16 O4'         2.4697    1.4219   -0.2462 O.3       1 ACP        -0.3675
     17 C3'         1.9404   -0.7419    0.5596 C.3       1 ACP         0.0748
     18 O3'         2.7418   -0.8086    1.7389 O.3       1 ACP        -0.5646
     19 C2'         0.7477    0.1630    0.7858 C.3       1 ACP         0.0804
     20 O2'         0.1373   -0.0577    2.0407 O.3       1 ACP        -0.5882
     21 C1'         1.3733    1.5427    0.6747 C.3       1 ACP         0.3809
     22 N9          0.4520    2.5240    0.1767 N.pl3     1 ACP        -0.4412
     23 C8          0.1798    2.8712   -1.2933 C.ar      1 ACP         0.1936
     24 N7         -0.7494    3.8400   -1.3610 N.2       1 ACP        -0.2746
     25 C5         -1.0173    4.0603   -0.0358 C.ar      1 ACP        -0.1386
     26 C6         -2.0105    5.0717    0.4241 C.ar      1 ACP         0.4778
     27 N6         -2.6723    5.7982   -0.4628 N.pl3     1 ACP        -0.8290
     28 N1         -2.1445    5.1522    1.7502 N.pl3     1 ACP        -0.6985
     29 C2         -1.3755    4.3143    2.6426 C.ar      1 ACP         0.6179
     30 N3         -0.5075    3.4292    2.2616 N.ar      1 ACP        -0.5105
     31 C4         -0.3667    3.3425    0.9070 C.ar      1 ACP         0.2753
     32 HOG2        1.6380   -6.9953   -5.5718 H         1 ACP         0.4487
     33 HOG3        1.0491   -5.0270   -3.5634 H         1 ACP         0.4487
     34 H3B1        3.8042   -3.9919   -5.8969 H         1 ACP         0.1088
     35 H3B2        2.9835   -3.9299   -7.4540 H         1 ACP         0.1088
     36 H5'1        2.8430    0.3138   -2.6391 H         1 ACP         0.0327
     37 H5'2        1.2126   -0.0907   -2.0421 H         1 ACP         0.0327
     38 H4'         3.8046   -0.1390   -0.4011 H         1 ACP         0.1275
     39 H3'         1.6787   -1.7627    0.2719 H         1 ACP         0.0637
     40 HO3'        3.5553   -1.2733    1.4913 H         1 ACP         0.4127
     41 H2'         0.0002   -0.0084   -0.0014 H         1 ACP         0.0692
     42 HO2'       -0.1554   -0.9852    2.0577 H         1 ACP         0.4431
     43 H1'         1.7718    1.9211    1.6015 H         1 ACP         0.1199
     44 H8          0.6089    2.4651   -2.2147 H         1 ACP         0.2941
     45 HN61       -2.5055    5.6680   -1.4503 H         1 ACP         0.4754
     46 HN62       -3.3462    6.4841   -0.1542 H         1 ACP         0.4754
     47 H2         -1.5932    4.4937    3.7066 H         1 ACP         0.0886
     48 H48        -2.8098    5.8270    2.1160 H         1 ACP         0.4707
@<TRIPOS>BOND
     1    1    2 2
     2    1    3 1
     3    1    4 1
     4    1    8 1
     5    3   32 1
     6    4   33 1
     7    5    6 2
     8    5    7 1
     9    5    8 1
    10    5   12 1
    11    8   34 1
    12    8   35 1
    13    9   10 2
    14    9   11 1
    15    9   12 1
    16    9   13 1
    17   13   14 1
    18   14   15 1
    19   14   36 1
    20   14   37 1
    21   15   16 1
    22   15   17 1
    23   15   38 1
    24   16   21 1
    25   17   18 1
    26   17   19 1
    27   17   39 1
    28   18   40 1
    29   19   20 1
    30   19   21 1
    31   19   41 1
    32   20   42 1
    33   21   22 1
    34   21   43 1
    35   22   23 ar
    36   22   31 ar
    37   23   24 ar
    38   23   44 1
    39   24   25 ar
    40   25   26 ar
    41   25   31 ar
    42   26   27 1
    43   26   28 ar
    44   27   45 1
    45   27   46 1
    46   28   29 ar
    47   28   48 1
    48   29   30 ar
    49   29   47 1
    50   30   31 ar
@<TRIPOS>SUBSTRUCTURE
     1 ACP         1 GROUP 0 A     ****
@<TRIPOS>MOLECULE
[[5-(6-amino-1,8-dihydropurine-6,8-diylium-7-id-9-yl)-3,4-dihydroxy-tetrahydrofuran-2-yl]methoxy-oxido-phosphoryl]oxy-(phosphonomethyl)phosphinate
   48    50     1     0     0
SMALL
USER_CHARGES

@<TRIPOS>ATOM
      1 PG         -1.1846    1.0207   -4.3448 P.3       1 ACP         1.6558
      2 O1G        -0.4600    0.0556   -3.4555 O.2       1 ACP        -0.9020
      3 O2G        -2.0026    2.1869   -3.5826 O.3       1 ACP        -0.8036
      4 O3G        -2.2863    0.3644   -5.3273 O.3       1 ACP        -0.8036
      5 PB          1.2509    3.0422   -4.9032 P.3       1 ACP         1.4945
      6 O1B         0.6262    4.1189   -4.0464 O.co2     1 ACP        -0.8481
      7 O2B         2.1068    3.3634   -6.1065 O.co2     1 ACP        -0.8481
      8 C3B        -0.1161    1.9369   -5.4781 C.3       1 ACP        -0.6636
      9 PA          2.8587    0.6155   -4.3269 P.3       1 ACP         1.6023
     10 O1A         4.0963    1.0194   -5.0986 O.co2     1 ACP        -0.8673
     11 O2A         1.8949   -0.4037   -4.8946 O.co2     1 ACP        -0.8673
     12 O3A         2.0199    1.9653   -3.9502 O.3       1 ACP        -0.8150
     13 O5'         3.2885    0.1337   -2.8242 O.3       1 ACP        -0.5522
     14 C5'         2.2816   -0.2918   -1.9206 C.3       1 ACP         0.2181
     15 C4'         2.7248    0.0226   -0.4980 C.3       1 ACP         0.0915
     16 O4'         2.4697    1.4219   -0.2462 O.3       1 ACP        -0.3675
     17 C3'         1.9404   -0.7419    0.5596 C.3       1 ACP         0.0748
     18 O3'         2.7418   -0.8086    1.7389 O.3       1 ACP        -0.5646
     19 C2'         0.7477    0.1630    0.7858 C.3       1 ACP         0.0804
     20 O2'         0.1373   -0.0577    2.0407 O.3       1 ACP        -0.5882
     21 C1'         1.3733    1.5427    0.6747 C.3       1 ACP         0.3809
     22 N9          0.4520    2.5240    0.1767 N.pl3     1 ACP        -0.4412
     23 C8         -1.0660    2.5608    0.3999 C.ar      1 ACP         0.1936
     24 N7         -1.5852    3.6333   -0.2221 N.2       1 ACP        -0.2746
     25 C5         -0.4682    4.1996   -0.7771 C.ar      1 ACP        -0.1386
     26 C6         -0.5216    5.4476   -1.5899 C.ar      1 ACP         0.4778
     27 N6         -1.6813    6.0510   -1.7982 N.pl3     1 ACP        -0.8290
     28 N1          0.6621    5.8575   -2.0523 N.pl3     1 ACP        -0.6985
     29 C2          1.8795    5.1301   -1.7717 C.ar      1 ACP         0.6179
     30 N3          1.9458    4.0434   -1.0670 N.ar      1 ACP        -0.5105
     31 C4          0.7388    3.6199   -0.5917 C.ar      1 ACP         0.2753
     32 HOG2       -2.7192    1.9364   -2.9614 H         1 ACP         0.4487
     33 HOG3       -3.0400   -0.1261   -4.9358 H         1 ACP         0.4487
     34 H3B1        0.3558    1.2100   -6.1488 H         1 ACP         0.1088
     35 H3B2       -0.7685    2.5647   -6.0957 H         1 ACP         0.1088
     36 H5'1        1.3501    0.2325   -2.1561 H         1 ACP         0.0327
     37 H5'2        2.1268   -1.3683   -2.0445 H         1 ACP         0.0327
     38 H4'         3.8046   -0.1390   -0.4011 H         1 ACP         0.1275
     39 H3'         1.6787   -1.7627    0.2719 H         1 ACP         0.0637
     40 HO3'        3.5553   -1.2733    1.4913 H         1 ACP         0.4127
     41 H2'         0.0002   -0.0084   -0.0014 H         1 ACP         0.0692
     42 HO2'       -0.1554   -0.9852    2.0577 H         1 ACP         0.4431
     43 H1'         1.7718    1.9211    1.6015 H         1 ACP         0.1199
     44 H8         -1.7235    1.8833    0.9537 H         1 ACP         0.2941
     45 HN61       -2.5296    5.6672   -1.4072 H         1 ACP         0.4754
     46 HN62       -1.7205    6.8969   -2.3483 H         1 ACP         0.4754
     47 H2          2.7750    5.5878   -2.2190 H         1 ACP         0.0886
     48 H48         0.6808    6.7046   -2.6128 H         1 ACP         0.4707
@<TRIPOS>BOND
     1    1    2 2
     2    1    3 1
     3    1    4 1
     4    1    8 1
     5    3   32 1
     6    4   33 1
     7    5    6 2
     8    5    7 1
     9    5    8 1
    10    5   12 1
    11    8   34 1
    12    8   35 1
    13    9   10 2
    14    9   11 1
    15    9   12 1
    16    9   13 1
    17   13   14 1
    18   14   15 1
    19   14   36 1
    20   14   37 1
    21   15   16 1
    22   15   17 1
    23   15   38 1
    24   16   21 1
    25   17   18 1
    26   17   19 1
    27   17   39 1
    28   18   40 1
    29   19   20 1
    30   19   21 1
    31   19   41 1
    32   20   42 1
    33   21   22 1
    34   21   43 1
    35   22   23 ar
    36   22   31 ar
    37   23   24 ar
    38   23   44 1
    39   24   25 ar
    40   25   26 ar
    41   25   31 ar
    42   26   27 1
    43   26   28 ar
    44   27   45 1
    45   27   46 1
    46   28   29 ar
    47   28   48 1
    48   29   30 ar
    49   29   47 1
    50   30   31 ar
@<TRIPOS>SUBSTRUCTURE
     1 ACP         1 GROUP 0 A     ****
@<TRIPOS>MOLECULE
[[5-(6-amino-1,8-dihydropurine-6,8-diylium-7-id-9-yl)-3,4-dihydroxy-tetrahydrofuran-2-yl]methoxy-oxido-phosphoryl]oxy-(phosphonomethyl)phosphinate
   48    50     1     0     0
SMALL
USER_CHARGES

@<TRIPOS>ATOM
      1 PG         -1.2818    2.4759   -4.0729 P.3       1 ACP         1.6558
      2 O1G        -1.9698    3.7421   -3.6594 O.2       1 ACP        -0.9020
      3 O2G        -2.2415    1.3379   -4.7006 O.3       1 ACP        -0.8036
      4 O3G        -0.4926    1.7000   -2.8961 O.3       1 ACP        -0.8036
      5 PB          0.9806    1.2956   -6.0269 P.3       1 ACP         1.4945
      6 O1B         1.9236    1.8766   -7.0549 O.co2     1 ACP        -0.8481
      7 O2B         0.0187    0.1773   -6.3548 O.co2     1 ACP        -0.8481
      8 C3B        -0.0149    2.6961   -5.3425 C.3       1 ACP        -0.6636
      9 PA          3.0640   -0.0874   -4.4291 P.3       1 ACP         1.6023
     10 O1A         4.2648    0.4427   -5.1825 O.co2     1 ACP        -0.8673
     11 O2A         2.5794   -1.5038   -4.6499 O.co2     1 ACP        -0.8673
     12 O3A         1.8101    0.9308   -4.6711 O.3       1 ACP        -0.8150
     13 O5'         3.2885    0.1337   -2.8242 O.3       1 ACP        -0.5522
     14 C5'         2.2816   -0.2918   -1.9206 C.3       1 ACP         0.2181
     15 C4'         2.7248    0.0226   -0.4980 C.3       1 ACP         0.0915
     16 O4'         2.4697    1.4219   -0.2462 O.3       1 ACP        -0.3675
     17 C3'         1.9404   -0.7419    0.5596 C.3       1 ACP         0.0748
     18 O3'         2.7418   -0.8086    1.7389 O.3       1 ACP        -0.5646
     19 C2'         0.7477    0.1630    0.7858 C.3       1 ACP         0.0804
     20 O2'         0.1373   -0.0577    2.0407 O.3       1 ACP        -0.5882
     21 C1'         1.3733    1.5427    0.6747 C.3       1 ACP         0.3809
     22 N9          0.4520    2.5240    0.1767 N.pl3     1 ACP        -0.4412
     23 C8          0.5793    3.3338   -1.1209 C.ar      1 ACP         0.1936
     24 N7         -0.4807    4.1508   -1.2458 N.2       1 ACP        -0.2746
     25 C5         -1.1921    3.8572   -0.1126 C.ar      1 ACP        -0.1386
     26 C6         -2.4855    4.5203    0.2163 C.ar      1 ACP         0.4778
     27 N6         -2.9873    5.4319   -0.6020 N.pl3     1 ACP        -0.8290
     28 N1         -3.0414    4.1119    1.3596 N.pl3     1 ACP        -0.6985
     29 C2         -2.4169    3.1071    2.1904 C.ar      1 ACP         0.6179
     30 N3         -1.2928    2.5191    1.9210 N.ar      1 ACP        -0.5105
     31 C4         -0.7202    2.9326    0.7534 C.ar      1 ACP         0.2753
     32 HOG2       -2.9731    0.9792   -4.1546 H         1 ACP         0.4487
     33 HOG3       -0.9940    1.3892   -2.1125 H         1 ACP         0.4487
     34 H3B1       -0.4926    3.1683   -6.2084 H         1 ACP         0.1088
     35 H3B2        0.7121    3.4149   -4.9475 H         1 ACP         0.1088
     36 H5'1        1.3501    0.2325   -2.1561 H         1 ACP         0.0327
     37 H5'2        2.1268   -1.3683   -2.0445 H         1 ACP         0.0327
     38 H4'         3.8046   -0.1390   -0.4011 H         1 ACP         0.1275
     39 H3'         1.6787   -1.7627    0.2719 H         1 ACP         0.0637
     40 HO3'        2.9082    0.1071    2.0091 H         1 ACP         0.4127
     41 H2'         0.0002   -0.0084   -0.0014 H         1 ACP         0.0692
     42 HO2'        0.8091    0.1203    2.7213 H         1 ACP         0.4431
     43 H1'         1.7718    1.9211    1.6015 H         1 ACP         0.1199
     44 H8          1.3565    3.3309   -1.8916 H         1 ACP         0.2941
     45 HN61       -2.4952    5.6785   -1.4487 H         1 ACP         0.4754
     46 HN62       -3.8637    5.8828   -0.3819 H         1 ACP         0.4754
     47 H2         -2.9911    2.8734    3.1000 H         1 ACP         0.0886
     48 H48        -3.9253    4.5332    1.6302 H         1 ACP         0.4707
@<TRIPOS>BOND
     1    1    2 2
     2    1    3 1
     3    1    4 1
     4    1    8 1
     5    3   32 1
     6    4   33 1
     7    5    6 2
     8    5    7 1
     9    5    8 1
    10    5   12 1
    11    8   34 1
    12    8   35 1
    13    9   10 2
    14    9   11 1
    15    9   12 1
    16    9   13 1
    17   13   14 1
    18   14   15 1
    19   14   36 1
    20   14   37 1
    21   15   16 1
    22   15   17 1
    23   15   38 1
    24   16   21 1
    25   17   18 1
    26   17   19 1
    27   17   39 1
    28   18   40 1
    29   19   20 1
    30   19   21 1
    31   19   41 1
    32   20   42 1
    33   21   22 1
    34   21   43 1
    35   22   23 ar
    36   22   31 ar
    37   23   24 ar
    38   23   44 1
    39   24   25 ar
    40   25   26 ar
    41   25   31 ar
    42   26   27 1
    43   26   28 ar
    44   27   45 1
    45   27   46 1
    46   28   29 ar
    47   28   48 1
    48   29   30 ar
    49   29   47 1
    50   30   31 ar
@<TRIPOS>SUBSTRUCTURE
     1 ACP         1 GROUP 0 A     ****
@<TRIPOS>MOLECULE
[[5-(6-amino-1,8-dihydropurine-6,8-diylium-7-id-9-yl)-3,4-dihydroxy-tetrahydrofuran-2-yl]methoxy-oxido-phosphoryl]oxy-(phosphonomethyl)phosphinate
   48    50     1     0     0
SMALL
USER_CHARGES

@<TRIPOS>ATOM
      1 PG         -0.6493   -1.8282   -4.8640 P.3       1 ACP         1.6558
      2 O1G        -1.9707   -1.4970   -4.2383 O.2       1 ACP        -0.9020
      3 O2G        -0.5843   -3.2438   -5.6400 O.3       1 ACP        -0.8036
      4 O3G         0.6022   -1.8964   -3.8448 O.3       1 ACP        -0.8036
      5 PB          0.1937    1.1445   -5.7483 P.3       1 ACP         1.4945
      6 O1B        -1.1140    1.7209   -5.2572 O.co2     1 ACP        -0.8481
      7 O2B         0.9419    1.7280   -6.9244 O.co2     1 ACP        -0.8481
      8 C3B        -0.0986   -0.6449   -6.1137 C.3       1 ACP        -0.6636
      9 PA          2.7380    0.3741   -4.4295 P.3       1 ACP         1.6023
     10 O1A         3.6394    1.3278   -5.1833 O.co2     1 ACP        -0.8673
     11 O2A         2.7083   -1.0978   -4.7798 O.co2     1 ACP        -0.8673
     12 O3A         1.2106    0.9496   -4.4885 O.3       1 ACP        -0.8150
     13 O5'         3.0199    0.5139   -2.8245 O.3       1 ACP        -0.5522
     14 C5'         2.2816   -0.2918   -1.9206 C.3       1 ACP         0.2181
     15 C4'         2.7248    0.0226   -0.4980 C.3       1 ACP         0.0915
     16 O4'         2.4697    1.4219   -0.2462 O.3       1 ACP        -0.3675
     17 C3'         1.9404   -0.7419    0.5596 C.3       1 ACP         0.0748
     18 O3'         2.7418   -0.8086    1.7389 O.3       1 ACP        -0.5646
     19 C2'         0.7477    0.1630    0.7858 C.3       1 ACP         0.0804
     20 O2'         0.1373   -0.0577    2.0407 O.3       1 ACP        -0.5882
     21 C1'         1.3733    1.5427    0.6747 C.3       1 ACP         0.3809
     22 N9          0.4520    2.5240    0.1767 N.pl3     1 ACP        -0.4412
     23 C8         -1.0660    2.5608    0.3999 C.ar      1 ACP         0.1936
     24 N7         -1.5852    3.6333   -0.2221 N.2       1 ACP        -0.2746
     25 C5         -0.4682    4.1996   -0.7771 C.ar      1 ACP        -0.1386
     26 C6         -0.5216    5.4476   -1.5899 C.ar      1 ACP         0.4778
     27 N6         -1.6813    6.0510   -1.7982 N.pl3     1 ACP        -0.8290
     28 N1          0.6621    5.8575   -2.0523 N.pl3     1 ACP        -0.6985
     29 C2          1.8795    5.1301   -1.7717 C.ar      1 ACP         0.6179
     30 N3          1.9458    4.0434   -1.0670 N.ar      1 ACP        -0.5105
     31 C4          0.7388    3.6199   -0.5917 C.ar      1 ACP         0.2753
     32 HOG2       -0.7621   -4.0685   -5.1397 H         1 ACP         0.4487
     33 HOG3        0.5804   -2.5435   -3.1081 H         1 ACP         0.4487
     34 H3B1        0.8440   -1.0179   -6.5302 H         1 ACP         0.1088
     35 H3B2       -0.8368   -0.6681   -6.9234 H         1 ACP         0.1088
     36 H5'1        1.2154   -0.0780   -2.0455 H         1 ACP         0.0327
     37 H5'2        2.4646   -1.3453   -2.1548 H         1 ACP         0.0327
     38 H4'         3.8046   -0.1390   -0.4011 H         1 ACP         0.1275
     39 H3'         1.6787   -1.7627    0.2719 H         1 ACP         0.0637
     40 HO3'        2.2231   -1.2979    2.3952 H         1 ACP         0.4127
     41 H2'         0.0002   -0.0084   -0.0014 H         1 ACP         0.0692
     42 HO2'       -0.1554   -0.9852    2.0577 H         1 ACP         0.4431
     43 H1'         1.7718    1.9211    1.6015 H         1 ACP         0.1199
     44 H8         -1.7235    1.8833    0.9537 H         1 ACP         0.2941
     45 HN61       -2.5296    5.6672   -1.4072 H         1 ACP         0.4754
     46 HN62       -1.7205    6.8969   -2.3483 H         1 ACP         0.4754
     47 H2          2.7750    5.5878   -2.2190 H         1 ACP         0.0886
     48 H48         0.6808    6.7046   -2.6128 H         1 ACP         0.4707
@<TRIPOS>BOND
     1    1    2 2
     2    1    3 1
     3    1    4 1
     4    1    8 1
     5    3   32 1
     6    4   33 1
     7    5    6 2
     8    5    7 1
     9    5    8 1
    10    5   12 1
    11    8   34 1
    12    8   35 1
    13    9   10 2
    14    9   11 1
    15    9   12 1
    16    9   13 1
    17   13   14 1
    18   14   15 1
    19   14   36 1
    20   14   37 1
    21   15   16 1
    22   15   17 1
    23   15   38 1
    24   16   21 1
    25   17   18 1
    26   17   19 1
    27   17   39 1
    28   18   40 1
    29   19   20 1
    30   19   21 1
    31   19   41 1
    32   20   42 1
    33   21   22 1
    34   21   43 1
    35   22   23 ar
    36   22   31 ar
    37   23   24 ar
    38   23   44 1
    39   24   25 ar
    40   25   26 ar
    41   25   31 ar
    42   26   27 1
    43   26   28 ar
    44   27   45 1
    45   27   46 1
    46   28   29 ar
    47   28   48 1
    48   29   30 ar
    49   29   47 1
    50   30   31 ar
@<TRIPOS>SUBSTRUCTURE
     1 ACP         1 GROUP 0 A     ****
@<TRIPOS>MOLECULE
[[5-(6-amino-1,8-dihydropurine-6,8-diylium-7-id-9-yl)-3,4-dihydroxy-tetrahydrofuran-2-yl]methoxy-oxido-phosphoryl]oxy-(phosphonomethyl)phosphinate
   48    50     1     0     0
SMALL
USER_CHARGES

@<TRIPOS>ATOM
      1 PG          7.6587    1.4362   -3.6833 P.3       1 ACP         1.6558
      2 O1G         8.4842    1.4812   -2.4327 O.2       1 ACP        -0.9020
      3 O2G         8.2703    2.2347   -4.9476 O.3       1 ACP        -0.8036
      4 O3G         6.1624    2.0295   -3.5476 O.3       1 ACP        -0.8036
      5 PB          6.5318   -1.5582   -3.3776 P.3       1 ACP         1.4945
      6 O1B         7.3384   -1.7925   -2.1214 O.co2     1 ACP        -0.8481
      7 O2B         6.2045   -2.6712   -4.3460 O.co2     1 ACP        -0.8481
      8 C3B         7.3847   -0.2263   -4.3364 C.3       1 ACP        -0.6636
      9 PA          3.9531   -0.2088   -3.9567 P.3       1 ACP         1.6023
     10 O1A         3.2272   -1.4155   -4.5112 O.co2     1 ACP        -0.8673
     11 O2A         4.4895    0.8608   -4.8830 O.co2     1 ACP        -0.8673
     12 O3A         5.1759   -0.7310   -3.0082 O.3       1 ACP        -0.8150
     13 O5'         3.0199    0.5139   -2.8245 O.3       1 ACP        -0.5522
     14 C5'         2.2816   -0.2918   -1.9206 C.3       1 ACP         0.2181
     15 C4'         2.7248    0.0226   -0.4980 C.3       1 ACP         0.0915
     16 O4'         2.4697    1.4219   -0.2462 O.3       1 ACP        -0.3675
     17 C3'         1.9404   -0.7419    0.5596 C.3       1 ACP         0.0748
     18 O3'         2.7418   -0.8086    1.7389 O.3       1 ACP        -0.5646
     19 C2'         0.7477    0.1630    0.7858 C.3       1 ACP         0.0804
     20 O2'         0.1373   -0.0577    2.0407 O.3       1 ACP        -0.5882
     21 C1'         1.3733    1.5427    0.6747 C.3       1 ACP         0.3809
     22 N9          0.4520    2.5240    0.1767 N.pl3     1 ACP        -0.4412
     23 C8          0.5793    3.3338   -1.1209 C.ar      1 ACP         0.1936
     24 N7         -0.4807    4.1508   -1.2458 N.2       1 ACP        -0.2746
     25 C5         -1.1921    3.8572   -0.1126 C.ar      1 ACP        -0.1386
     26 C6         -2.4855    4.5203    0.2163 C.ar      1 ACP         0.4778
     27 N6         -2.9873    5.4319   -0.6020 N.pl3     1 ACP        -0.8290
     28 N1         -3.0414    4.1119    1.3596 N.pl3     1 ACP        -0.6985
     29 C2         -2.4169    3.1071    2.1904 C.ar      1 ACP         0.6179
     30 N3         -1.2928    2.5191    1.9210 N.ar      1 ACP        -0.5105
     31 C4         -0.7202    2.9326    0.7534 C.ar      1 ACP         0.2753
     32 HOG2        8.4304    3.1992   -4.8682 H         1 ACP         0.4487
     33 HOG3        6.0450    2.9668   -3.2836 H         1 ACP         0.4487
     34 H3B1        6.8181   -0.1263   -5.2691 H         1 ACP         0.1088
     35 H3B2        8.3678   -0.6316   -4.6019 H         1 ACP         0.1088
     36 H5'1        1.2154   -0.0780   -2.0455 H         1 ACP         0.0327
     37 H5'2        2.4646   -1.3453   -2.1548 H         1 ACP         0.0327
     38 H4'         3.8046   -0.1390   -0.4011 H         1 ACP         0.1275
     39 H3'         1.6787   -1.7627    0.2719 H         1 ACP         0.0637
     40 HO3'        2.2231   -1.2979    2.3952 H         1 ACP         0.4127
     41 H2'         0.0002   -0.0084   -0.0014 H         1 ACP         0.0692
     42 HO2'       -0.1554   -0.9852    2.0577 H         1 ACP         0.4431
     43 H1'         1.7718    1.9211    1.6015 H         1 ACP         0.1199
     44 H8          1.3565    3.3309   -1.8916 H         1 ACP         0.2941
     45 HN61       -2.4952    5.6785   -1.4487 H         1 ACP         0.4754
     46 HN62       -3.8637    5.8828   -0.3819 H         1 ACP         0.4754
     47 H2         -2.9911    2.8734    3.1000 H         1 ACP         0.0886
     48 H48        -3.9253    4.5332    1.6302 H         1 ACP         0.4707
@<TRIPOS>BOND
     1    1    2 2
     2    1    3 1
     3    1    4 1
     4    1    8 1
     5    3   32 1
     6    4   33 1
     7    5    6 2
     8    5    7 1
     9    5    8 1
    10    5   12 1
    11    8   34 1
    12    8   35 1
    13    9   10 2
    14    9   11 1
    15    9   12 1
    16    9   13 1
    17   13   14 1
    18   14   15 1
    19   14   36 1
    20   14   37 1
    21   15   16 1
    22   15   17 1
    23   15   38 1
    24   16   21 1
    25   17   18 1
    26   17   19 1
    27   17   39 1
    28   18   40 1
    29   19   20 1
    30   19   21 1
    31   19   41 1
    32   20   42 1
    33   21   22 1
    34   21   43 1
    35   22   23 ar
    36   22   31 ar
    37   23   24 ar
    38   23   44 1
    39   24   25 ar
    40   25   26 ar
    41   25   31 ar
    42   26   27 1
    43   26   28 ar
    44   27   45 1
    45   27   46 1
    46   28   29 ar
    47   28   48 1
    48   29   30 ar
    49   29   47 1
    50   30   31 ar
@<TRIPOS>SUBSTRUCTURE
     1 ACP         1 GROUP 0 A     ****
@<TRIPOS>MOLECULE
[[5-(6-amino-1,8-dihydropurine-6,8-diylium-7-id-9-yl)-3,4-dihydroxy-tetrahydrofuran-2-yl]methoxy-oxido-phosphoryl]oxy-(phosphonomethyl)phosphinate
   48    50     1     0     0
SMALL
USER_CHARGES

@<TRIPOS>ATOM
      1 PG         -1.9647    1.6039   -5.8283 P.3       1 ACP         1.6558
      2 O1G        -1.3780    0.4184   -6.5337 O.2       1 ACP        -0.9020
      3 O2G        -3.5323    1.4842   -5.4563 O.3       1 ACP        -0.8036
      4 O3G        -1.8706    3.0035   -6.6296 O.3       1 ACP        -0.8036
      5 PB          0.6033    2.4037   -4.0688 P.3       1 ACP         1.4945
      6 O1B         0.8658    2.6564   -2.6023 O.co2     1 ACP        -0.8481
      7 O2B         0.9325    3.4228   -5.1350 O.co2     1 ACP        -0.8481
      8 C3B        -1.1901    1.9855   -4.2408 C.3       1 ACP        -0.6636
      9 PA          2.7380    0.3741   -4.4295 P.3       1 ACP         1.6023
     10 O1A         3.6394    1.3278   -5.1833 O.co2     1 ACP        -0.8673
     11 O2A         2.7083   -1.0978   -4.7798 O.co2     1 ACP        -0.8673
     12 O3A         1.2106    0.9496   -4.4885 O.3       1 ACP        -0.8150
     13 O5'         3.0199    0.5139   -2.8245 O.3       1 ACP        -0.5522
     14 C5'         2.2816   -0.2918   -1.9206 C.3       1 ACP         0.2181
     15 C4'         2.7248    0.0226   -0.4980 C.3       1 ACP         0.0915
     16 O4'         2.4697    1.4219   -0.2462 O.3       1 ACP        -0.3675
     17 C3'         1.9404   -0.7419    0.5596 C.3       1 ACP         0.0748
     18 O3'         2.7418   -0.8086    1.7389 O.3       1 ACP        -0.5646
     19 C2'         0.7477    0.1630    0.7858 C.3       1 ACP         0.0804
     20 O2'         0.1373   -0.0577    2.0407 O.3       1 ACP        -0.5882
     21 C1'         1.3733    1.5427    0.6747 C.3       1 ACP         0.3809
     22 N9          0.4520    2.5240    0.1767 N.pl3     1 ACP        -0.4412
     23 C8         -1.0247    2.3053   -0.1800 C.ar      1 ACP         0.1936
     24 N7         -1.5580    3.4612   -0.6116 N.2       1 ACP        -0.2746
     25 C5         -0.4873    4.3110   -0.5222 C.ar      1 ACP        -0.1386
     26 C6         -0.5728    5.7505   -0.8981 C.ar      1 ACP         0.4778
     27 N6         -1.7163    6.2514   -1.3385 N.pl3     1 ACP        -0.8290
     28 N1          0.5667    6.4301   -0.7475 N.pl3     1 ACP        -0.6985
     29 C2          1.7697    5.7952   -0.2579 C.ar      1 ACP         0.6179
     30 N3          1.8633    4.5450    0.0742 N.ar      1 ACP        -0.5105
     31 C4          0.7014    3.8457   -0.0776 C.ar      1 ACP         0.2753
     32 HOG2       -4.1839    1.3598   -6.1788 H         1 ACP         0.4487
     33 HOG3       -2.3032    3.0789   -7.5066 H         1 ACP         0.4487
     34 H3B1       -1.7326    2.8307   -3.8025 H         1 ACP         0.1088
     35 H3B2       -1.3602    1.1229   -3.5865 H         1 ACP         0.1088
     36 H5'1        1.2154   -0.0780   -2.0455 H         1 ACP         0.0327
     37 H5'2        2.4646   -1.3453   -2.1548 H         1 ACP         0.0327
     38 H4'         3.8046   -0.1390   -0.4011 H         1 ACP         0.1275
     39 H3'         1.6787   -1.7627    0.2719 H         1 ACP         0.0637
     40 HO3'        2.9082    0.1071    2.0091 H         1 ACP         0.4127
     41 H2'         0.0002   -0.0084   -0.0014 H         1 ACP         0.0692
     42 HO2'       -0.1554   -0.9852    2.0577 H         1 ACP         0.4431
     43 H1'         1.7718    1.9211    1.6015 H         1 ACP         0.1199
     44 H8         -1.6458    1.4054   -0.1318 H         1 ACP         0.2941
     45 HN61       -2.5307    5.6598   -1.4199 H         1 ACP         0.4754
     46 HN62       -1.7773    7.2266   -1.5938 H         1 ACP         0.4754
     47 H2          2.6279    6.4808   -0.1872 H         1 ACP         0.0886
     48 H48         0.5621    7.4166   -0.9900 H         1 ACP         0.4707
@<TRIPOS>BOND
     1    1    2 2
     2    1    3 1
     3    1    4 1
     4    1    8 1
     5    3   32 1
     6    4   33 1
     7    5    6 2
     8    5    7 1
     9    5    8 1
    10    5   12 1
    11    8   34 1
    12    8   35 1
    13    9   10 2
    14    9   11 1
    15    9   12 1
    16    9   13 1
    17   13   14 1
    18   14   15 1
    19   14   36 1
    20   14   37 1
    21   15   16 1
    22   15   17 1
    23   15   38 1
    24   16   21 1
    25   17   18 1
    26   17   19 1
    27   17   39 1
    28   18   40 1
    29   19   20 1
    30   19   21 1
    31   19   41 1
    32   20   42 1
    33   21   22 1
    34   21   43 1
    35   22   23 ar
    36   22   31 ar
    37   23   24 ar
    38   23   44 1
    39   24   25 ar
    40   25   26 ar
    41   25   31 ar
    42   26   27 1
    43   26   28 ar
    44   27   45 1
    45   27   46 1
    46   28   29 ar
    47   28   48 1
    48   29   30 ar
    49   29   47 1
    50   30   31 ar
@<TRIPOS>SUBSTRUCTURE
     1 ACP         1 GROUP 0 A     ****
@<TRIPOS>MOLECULE
[[5-(6-amino-1,8-dihydropurine-6,8-diylium-7-id-9-yl)-3,4-dihydroxy-tetrahydrofuran-2-yl]methoxy-oxido-phosphoryl]oxy-(phosphonomethyl)phosphinate
   48    50     1     0     0
SMALL
USER_CHARGES

@<TRIPOS>ATOM
      1 PG         -5.7161   -3.6435    3.9403 P.3       1 ACP         1.6558
      2 O1G        -5.3858   -2.2771    3.4196 O.2       1 ACP        -0.9020
      3 O2G        -7.1607   -3.7853    4.6498 O.3       1 ACP        -0.8036
      4 O3G        -4.6923   -4.2308    5.0433 O.3       1 ACP        -0.8036
      5 PB         -4.2760   -5.3673    1.6415 P.3       1 ACP         1.4945
      6 O1B        -3.8864   -4.1238    0.8763 O.co2     1 ACP        -0.8481
      7 O2B        -4.5797   -6.6773    0.9521 O.co2     1 ACP        -0.8481
      8 C3B        -5.7462   -4.9356    2.6773 C.3       1 ACP        -0.6636
      9 PA         -1.7213   -6.2745    2.8484 P.3       1 ACP         1.6023
     10 O1A        -1.8046   -7.6445    2.2109 O.co2     1 ACP        -0.8673
     11 O2A        -1.1153   -6.1001    4.2240 O.co2     1 ACP        -0.8673
     12 O3A        -3.2154   -5.6149    2.8552 O.3       1 ACP        -0.8150
     13 O5'        -0.9728   -5.2428    1.8236 O.3       1 ACP        -0.5522
     14 C5'        -0.7840   -3.8935    2.2172 C.3       1 ACP         0.2181
     15 C4'        -0.0724   -3.1466    1.1027 C.3       1 ACP         0.0915
     16 O4'        -0.8674   -3.1929   -0.0945 O.3       1 ACP        -0.3675
     17 C3'         0.1338   -1.6715    1.4027 C.3       1 ACP         0.0748
     18 O3'         1.2893   -1.4445    2.1808 O.3       1 ACP        -0.5646
     19 C2'         0.2158   -1.0724    0.0128 C.3       1 ACP         0.0804
     20 O2'         1.5141   -1.2448   -0.5513 O.3       1 ACP        -0.5882
     21 C1'        -0.7897   -1.9176   -0.7583 C.3       1 ACP         0.3809
     22 N9         -2.1040   -1.3333   -0.7704 N.pl3     1 ACP        -0.4412
     23 C8         -3.2124   -1.5345    0.2719 C.ar      1 ACP         0.1936
     24 N7         -4.2964   -0.8234   -0.0828 N.2       1 ACP        -0.2746
     25 C5         -3.8754   -0.2386   -1.2478 C.ar      1 ACP        -0.1386
     26 C6         -4.7432    0.6719   -2.0470 C.ar      1 ACP         0.4778
     27 N6         -5.9725    0.9415   -1.6366 N.pl3     1 ACP        -0.8290
     28 N1         -4.1703    1.1517   -3.1536 N.pl3     1 ACP        -0.6985
     29 C2         -2.8174    0.7994   -3.5215 C.ar      1 ACP         0.6179
     30 N3         -2.0475    0.0097   -2.8393 N.ar      1 ACP        -0.5105
     31 C4         -2.6278   -0.4836   -1.7071 C.ar      1 ACP         0.2753
     32 HOG2       -7.3589   -3.2359    5.4377 H         1 ACP         0.4487
     33 HOG3       -4.5655   -3.7399    5.8829 H         1 ACP         0.4487
     34 H3B1       -6.0461   -5.8694    3.1662 H         1 ACP         0.1088
     35 H3B2       -6.5430   -4.6744    1.9716 H         1 ACP         0.1088
     36 H5'1       -1.7614   -3.4428    2.4166 H         1 ACP         0.0327
     37 H5'2       -0.1870   -3.8724    3.1344 H         1 ACP         0.0327
     38 H4'         0.8883   -3.6447    0.8783 H         1 ACP         0.1275
     39 H3'        -0.7368   -1.2359    1.9871 H         1 ACP         0.0637
     40 HO3'        1.1625   -1.9325    3.0084 H         1 ACP         0.4127
     41 H2'        -0.0343   -0.0280    0.0196 H         1 ACP         0.0692
     42 HO2'        1.4978   -0.8409   -1.4361 H         1 ACP         0.4431
     43 H1'        -0.5175   -2.1046   -1.7826 H         1 ACP         0.1199
     44 H8         -3.2310   -2.1319    1.1889 H         1 ACP         0.2941
     45 HN61       -6.5630    1.5580   -2.1762 H         1 ACP         0.4754
     46 HN62       -6.3231    0.5311   -0.7832 H         1 ACP         0.4754
     47 H2         -2.4822    1.2710   -4.4579 H         1 ACP         0.0886
     48 H48        -4.7200    1.7780   -3.7346 H         1 ACP         0.4707
@<TRIPOS>BOND
     1    1    2 2
     2    1    3 1
     3    1    4 1
     4    1    8 1
     5    3   32 1
     6    4   33 1
     7    5    6 2
     8    5    7 1
     9    5    8 1
    10    5   12 1
    11    8   34 1
    12    8   35 1
    13    9   10 2
    14    9   11 1
    15    9   12 1
    16    9   13 1
    17   13   14 1
    18   14   15 1
    19   14   36 1
    20   14   37 1
    21   15   16 1
    22   15   17 1
    23   15   38 1
    24   16   21 1
    25   17   18 1
    26   17   19 1
    27   17   39 1
    28   18   40 1
    29   19   20 1
    30   19   21 1
    31   19   41 1
    32   20   42 1
    33   21   22 1
    34   21   43 1
    35   22   23 ar
    36   22   31 ar
    37   23   24 ar
    38   23   44 1
    39   24   25 ar
    40   25   26 ar
    41   25   31 ar
    42   26   27 1
    43   26   28 ar
    44   27   45 1
    45   27   46 1
    46   28   29 ar
    47   28   48 1
    48   29   30 ar
    49   29   47 1
    50   30   31 ar
@<TRIPOS>SUBSTRUCTURE
     1 ACP         1 GROUP 0 A     ****
@<TRIPOS>MOLECULE
[[5-(6-amino-1,8-dihydropurine-6,8-diylium-7-id-9-yl)-3,4-dihydroxy-tetrahydrofuran-2-yl]methoxy-oxido-phosphoryl]oxy-(phosphonomethyl)phosphinate
   48    50     1     0     0
SMALL
USER_CHARGES

@<TRIPOS>ATOM
      1 PG          6.3704   -1.9720   -5.8532 P.3       1 ACP         1.6558
      2 O1G         6.9087   -3.2686   -5.3275 O.2       1 ACP        -0.9020
      3 O2G         7.2834   -1.2432   -6.9692 O.3       1 ACP        -0.8036
      4 O3G         6.1334   -0.8202   -4.7456 O.3       1 ACP        -0.8036
      5 PB          3.2448   -2.7178   -5.7907 P.3       1 ACP         1.4945
      6 O1B         3.5336   -4.1263   -5.3255 O.co2     1 ACP        -0.8481
      7 O2B         2.0581   -2.3838   -6.6647 O.co2     1 ACP        -0.8481
      8 C3B         4.7587   -2.1059   -6.6594 C.3       1 ACP        -0.6636
      9 PA          3.0640   -0.0874   -4.4291 P.3       1 ACP         1.6023
     10 O1A         1.6224    0.2104   -4.7809 O.co2     1 ACP        -0.8673
     11 O2A         4.1945    0.5982   -5.1653 O.co2     1 ACP        -0.8673
     12 O3A         3.2953   -1.7018   -4.5162 O.3       1 ACP        -0.8150
     13 O5'         3.2885    0.1337   -2.8242 O.3       1 ACP        -0.5522
     14 C5'         2.2816   -0.2918   -1.9206 C.3       1 ACP         0.2181
     15 C4'         2.7248    0.0226   -0.4980 C.3       1 ACP         0.0915
     16 O4'         2.4697    1.4219   -0.2462 O.3       1 ACP        -0.3675
     17 C3'         1.9404   -0.7419    0.5596 C.3       1 ACP         0.0748
     18 O3'         2.7418   -0.8086    1.7389 O.3       1 ACP        -0.5646
     19 C2'         0.7477    0.1630    0.7858 C.3       1 ACP         0.0804
     20 O2'         0.1373   -0.0577    2.0407 O.3       1 ACP        -0.5882
     21 C1'         1.3733    1.5427    0.6747 C.3       1 ACP         0.3809
     22 N9          0.4520    2.5240    0.1767 N.pl3     1 ACP        -0.4412
     23 C8         -1.0660    2.5608    0.3999 C.ar      1 ACP         0.1936
     24 N7         -1.5852    3.6333   -0.2221 N.2       1 ACP        -0.2746
     25 C5         -0.4682    4.1996   -0.7771 C.ar      1 ACP        -0.1386
     26 C6         -0.5216    5.4476   -1.5899 C.ar      1 ACP         0.4778
     27 N6         -1.6813    6.0510   -1.7982 N.pl3     1 ACP        -0.8290
     28 N1          0.6621    5.8575   -2.0523 N.pl3     1 ACP        -0.6985
     29 C2          1.8795    5.1301   -1.7717 C.ar      1 ACP         0.6179
     30 N3          1.9458    4.0434   -1.0670 N.ar      1 ACP        -0.5105
     31 C4          0.7388    3.6199   -0.5917 C.ar      1 ACP         0.2753
     32 HOG2        8.1992   -0.9805   -6.7362 H         1 ACP         0.4487
     33 HOG3        6.8978   -0.5021   -4.2198 H         1 ACP         0.4487
     34 H3B1        4.4969   -1.1133   -7.0428 H         1 ACP         0.1088
     35 H3B2        4.8895   -2.7600   -7.5290 H         1 ACP         0.1088
     36 H5'1        1.3501    0.2325   -2.1561 H         1 ACP         0.0327
     37 H5'2        2.1268   -1.3683   -2.0445 H         1 ACP         0.0327
     38 H4'         3.8046   -0.1390   -0.4011 H         1 ACP         0.1275
     39 H3'         1.6787   -1.7627    0.2719 H         1 ACP         0.0637
     40 HO3'        2.2231   -1.2979    2.3952 H         1 ACP         0.4127
     41 H2'         0.0002   -0.0084   -0.0014 H         1 ACP         0.0692
     42 HO2'       -0.1554   -0.9852    2.0577 H         1 ACP         0.4431
     43 H1'         1.7718    1.9211    1.6015 H         1 ACP         0.1199
     44 H8         -1.7235    1.8833    0.9537 H         1 ACP         0.2941
     45 HN61       -2.5296    5.6672   -1.4072 H         1 ACP         0.4754
     46 HN62       -1.7205    6.8969   -2.3483 H         1 ACP         0.4754
     47 H2          2.7750    5.5878   -2.2190 H         1 ACP         0.0886
     48 H48         0.6808    6.7046   -2.6128 H         1 ACP         0.4707
@<TRIPOS>BOND
     1    1    2 2
     2    1    3 1
     3    1    4 1
     4    1    8 1
     5    3   32 1
     6    4   33 1
     7    5    6 2
     8    5    7 1
     9    5    8 1
    10    5   12 1
    11    8   34 1
    12    8   35 1
    13    9   10 2
    14    9   11 1
    15    9   12 1
    16    9   13 1
    17   13   14 1
    18   14   15 1
    19   14   36 1
    20   14   37 1
    21   15   16 1
    22   15   17 1
    23   15   38 1
    24   16   21 1
    25   17   18 1
    26   17   19 1
    27   17   39 1
    28   18   40 1
    29   19   20 1
    30   19   21 1
    31   19   41 1
    32   20   42 1
    33   21   22 1
    34   21   43 1
    35   22   23 ar
    36   22   31 ar
    37   23   24 ar
    38   23   44 1
    39   24   25 ar
    40   25   26 ar
    41   25   31 ar
    42   26   27 1
    43   26   28 ar
    44   27   45 1
    45   27   46 1
    46   28   29 ar
    47   28   48 1
    48   29   30 ar
    49   29   47 1
    50   30   31 ar
@<TRIPOS>SUBSTRUCTURE
     1 ACP         1 GROUP 0 A     ****
@<TRIPOS>MOLECULE
[[5-(6-amino-1,8-dihydropurine-6,8-diylium-7-id-9-yl)-3,4-dihydroxy-tetrahydrofuran-2-yl]methoxy-oxido-phosphoryl]oxy-(phosphonomethyl)phosphinate
   48    50     1     0     0
SMALL
USER_CHARGES

@<TRIPOS>ATOM
      1 PG          2.1276    5.0057   -2.5144 P.3       1 ACP         1.6558
      2 O1G         1.6036    6.0085   -1.5309 O.2       1 ACP        -0.9020
      3 O2G         2.8316    3.7028   -1.8687 O.3       1 ACP        -0.8036
      4 O3G         3.2368    5.5633   -3.5481 O.3       1 ACP        -0.8036
      5 PB          1.2509    3.0422   -4.9032 P.3       1 ACP         1.4945
      6 O1B         2.2410    3.6701   -5.8566 O.co2     1 ACP        -0.8481
      7 O2B        -0.0646    2.4640   -5.3707 O.co2     1 ACP        -0.8481
      8 C3B         0.8689    4.3002   -3.6023 C.3       1 ACP        -0.6636
      9 PA          2.8587    0.6155   -4.3269 P.3       1 ACP         1.6023
     10 O1A         4.0963    1.0194   -5.0986 O.co2     1 ACP        -0.8673
     11 O2A         1.8949   -0.4037   -4.8946 O.co2     1 ACP        -0.8673
     12 O3A         2.0199    1.9653   -3.9502 O.3       1 ACP        -0.8150
     13 O5'         3.2885    0.1337   -2.8242 O.3       1 ACP        -0.5522
     14 C5'         2.2816   -0.2918   -1.9206 C.3       1 ACP         0.2181
     15 C4'         2.7248    0.0226   -0.4980 C.3       1 ACP         0.0915
     16 O4'         2.4697    1.4219   -0.2462 O.3       1 ACP        -0.3675
     17 C3'         1.9404   -0.7419    0.5596 C.3       1 ACP         0.0748
     18 O3'         2.7418   -0.8086    1.7389 O.3       1 ACP        -0.5646
     19 C2'         0.7477    0.1630    0.7858 C.3       1 ACP         0.0804
     20 O2'         0.1373   -0.0577    2.0407 O.3       1 ACP        -0.5882
     21 C1'         1.3733    1.5427    0.6747 C.3       1 ACP         0.3809
     22 N9          0.4520    2.5240    0.1767 N.pl3     1 ACP        -0.4412
     23 C8         -0.7463    2.2774   -0.7501 C.ar      1 ACP         0.1936
     24 N7         -1.3714    3.4419   -0.9948 N.2       1 ACP        -0.2746
     25 C5         -0.6104    4.3223   -0.2723 C.ar      1 ACP        -0.1386
     26 C6         -0.9062    5.7820   -0.2194 C.ar      1 ACP         0.4778
     27 N6         -1.9385    6.2713   -0.8881 N.pl3     1 ACP        -0.8290
     28 N1         -0.0613    6.4906    0.5336 N.pl3     1 ACP        -0.6985
     29 C2          1.0416    5.8662    1.2291 C.ar      1 ACP         0.6179
     30 N3          1.3146    4.5989    1.1954 N.ar      1 ACP        -0.5105
     31 C4          0.4541    3.8697    0.4273 C.ar      1 ACP         0.2753
     32 HOG2        3.6169    3.8231   -1.2935 H         1 ACP         0.4487
     33 HOG3        4.0752    5.9287   -3.1938 H         1 ACP         0.4487
     34 H3B1        0.1012    3.8433   -2.9676 H         1 ACP         0.1088
     35 H3B2        0.3934    5.1373   -4.1262 H         1 ACP         0.1088
     36 H5'1        1.3501    0.2325   -2.1561 H         1 ACP         0.0327
     37 H5'2        2.1268   -1.3683   -2.0445 H         1 ACP         0.0327
     38 H4'         3.8046   -0.1390   -0.4011 H         1 ACP         0.1275
     39 H3'         1.6787   -1.7627    0.2719 H         1 ACP         0.0637
     40 HO3'        2.2231   -1.2979    2.3952 H         1 ACP         0.4127
     41 H2'         0.0002   -0.0084   -0.0014 H         1 ACP         0.0692
     42 HO2'       -0.6132    0.5577    2.1063 H         1 ACP         0.4431
     43 H1'         1.7718    1.9211    1.6015 H         1 ACP         0.1199
     44 H8         -1.1244    1.3534   -1.1987 H         1 ACP         0.2941
     45 HN61       -2.5259    5.6573   -1.4336 H         1 ACP         0.4754
     46 HN62       -2.1416    7.2600   -0.8539 H         1 ACP         0.4754
     47 H2          1.6509    6.5764    1.8088 H         1 ACP         0.0886
     48 H48        -0.2190    7.4917    0.6033 H         1 ACP         0.4707
@<TRIPOS>BOND
     1    1    2 2
     2    1    3 1
     3    1    4 1
     4    1    8 1
     5    3   32 1
     6    4   33 1
     7    5    6 2
     8    5    7 1
     9    5    8 1
    10    5   12 1
    11    8   34 1
    12    8   35 1
    13    9   10 2
    14    9   11 1
    15    9   12 1
    16    9   13 1
    17   13   14 1
    18   14   15 1
    19   14   36 1
    20   14   37 1
    21   15   16 1
    22   15   17 1
    23   15   38 1
    24   16   21 1
    25   17   18 1
    26   17   19 1
    27   17   39 1
    28   18   40 1
    29   19   20 1
    30   19   21 1
    31   19   41 1
    32   20   42 1
    33   21   22 1
    34   21   43 1
    35   22   23 ar
    36   22   31 ar
    37   23   24 ar
    38   23   44 1
    39   24   25 ar
    40   25   26 ar
    41   25   31 ar
    42   26   27 1
    43   26   28 ar
    44   27   45 1
    45   27   46 1
    46   28   29 ar
    47   28   48 1
    48   29   30 ar
    49   29   47 1
    50   30   31 ar
@<TRIPOS>SUBSTRUCTURE
     1 ACP         1 GROUP 0 A     ****
@<TRIPOS>MOLECULE
[[5-(6-amino-1,8-dihydropurine-6,8-diylium-7-id-9-yl)-3,4-dihydroxy-tetrahydrofuran-2-yl]methoxy-oxido-phosphoryl]oxy-(phosphonomethyl)phosphinate
   48    50     1     0     0
SMALL
USER_CHARGES

@<TRIPOS>ATOM
      1 PG          3.1198    4.2127   -6.1989 P.3       1 ACP         1.6558
      2 O1G         1.9763    5.1637   -6.3870 O.2       1 ACP        -0.9020
      3 O2G         4.4975    4.6302   -6.9322 O.3       1 ACP        -0.8036
      4 O3G         2.8580    2.7040   -6.7136 O.3       1 ACP        -0.8036
      5 PB          2.4811    3.3248   -3.1767 P.3       1 ACP         1.4945
      6 O1B         1.3105    4.2761   -3.0861 O.co2     1 ACP        -0.8481
      7 O2B         3.3265    2.9686   -1.9758 O.co2     1 ACP        -0.8481
      8 C3B         3.6204    3.9796   -4.4782 C.3       1 ACP        -0.6636
      9 PA          2.8587    0.6155   -4.3269 P.3       1 ACP         1.6023
     10 O1A         4.0963    1.0194   -5.0986 O.co2     1 ACP        -0.8673
     11 O2A         1.8949   -0.4037   -4.8946 O.co2     1 ACP        -0.8673
     12 O3A         2.0199    1.9653   -3.9502 O.3       1 ACP        -0.8150
     13 O5'         3.2885    0.1337   -2.8242 O.3       1 ACP        -0.5522
     14 C5'         2.2816   -0.2918   -1.9206 C.3       1 ACP         0.2181
     15 C4'         2.7248    0.0226   -0.4980 C.3       1 ACP         0.0915
     16 O4'         2.4697    1.4219   -0.2462 O.3       1 ACP        -0.3675
     17 C3'         1.9404   -0.7419    0.5596 C.3       1 ACP         0.0748
     18 O3'         2.7418   -0.8086    1.7389 O.3       1 ACP        -0.5646
     19 C2'         0.7477    0.1630    0.7858 C.3       1 ACP         0.0804
     20 O2'         0.1373   -0.0577    2.0407 O.3       1 ACP        -0.5882
     21 C1'         1.3733    1.5427    0.6747 C.3       1 ACP         0.3809
     22 N9          0.4520    2.5240    0.1767 N.pl3     1 ACP        -0.4412
     23 C8         -0.3054    2.4845   -1.1576 C.ar      1 ACP         0.1936
     24 N7         -1.0755    3.5806   -1.2691 N.2       1 ACP        -0.2746
     25 C5         -0.8043    4.2306   -0.0942 C.ar      1 ACP        -0.1386
     26 C6         -1.4324    5.5335    0.2646 C.ar      1 ACP         0.4778
     27 N6         -2.2885    6.1054   -0.5675 N.pl3     1 ACP        -0.8290
     28 N1         -1.0537    6.0229    1.4478 N.pl3     1 ACP        -0.6985
     29 C2         -0.1096    5.3242    2.2908 C.ar      1 ACP         0.6179
     30 N3          0.4468    4.1904    1.9960 N.ar      1 ACP        -0.5105
     31 C4          0.0631    3.6855    0.7877 C.ar      1 ACP         0.2753
     32 HOG2        4.5040    4.7342   -7.9075 H         1 ACP         0.4487
     33 HOG3        2.6485    2.5545   -7.6600 H         1 ACP         0.4487
     34 H3B1        4.4880    3.3101   -4.4737 H         1 ACP         0.1088
     35 H3B2        3.9660    4.9527   -4.1111 H         1 ACP         0.1088
     36 H5'1        1.3501    0.2325   -2.1561 H         1 ACP         0.0327
     37 H5'2        2.1268   -1.3683   -2.0445 H         1 ACP         0.0327
     38 H4'         3.8046   -0.1390   -0.4011 H         1 ACP         0.1275
     39 H3'         1.6787   -1.7627    0.2719 H         1 ACP         0.0637
     40 HO3'        3.5553   -1.2733    1.4913 H         1 ACP         0.4127
     41 H2'         0.0002   -0.0084   -0.0014 H         1 ACP         0.0692
     42 HO2'        0.8091    0.1203    2.7213 H         1 ACP         0.4431
     43 H1'         1.7718    1.9211    1.6015 H         1 ACP         0.1199
     44 H8         -0.2991    1.7413   -1.9611 H         1 ACP         0.2941
     45 HN61       -2.5167    5.6603   -1.4447 H         1 ACP         0.4754
     46 HN62       -2.7159    6.9882   -0.3270 H         1 ACP         0.4754
     47 H2          0.1059    5.8491    3.2340 H         1 ACP         0.0886
     48 H48        -1.4532    6.9099    1.7401 H         1 ACP         0.4707
@<TRIPOS>BOND
     1    1    2 2
     2    1    3 1
     3    1    4 1
     4    1    8 1
     5    3   32 1
     6    4   33 1
     7    5    6 2
     8    5    7 1
     9    5    8 1
    10    5   12 1
    11    8   34 1
    12    8   35 1
    13    9   10 2
    14    9   11 1
    15    9   12 1
    16    9   13 1
    17   13   14 1
    18   14   15 1
    19   14   36 1
    20   14   37 1
    21   15   16 1
    22   15   17 1
    23   15   38 1
    24   16   21 1
    25   17   18 1
    26   17   19 1
    27   17   39 1
    28   18   40 1
    29   19   20 1
    30   19   21 1
    31   19   41 1
    32   20   42 1
    33   21   22 1
    34   21   43 1
    35   22   23 ar
    36   22   31 ar
    37   23   24 ar
    38   23   44 1
    39   24   25 ar
    40   25   26 ar
    41   25   31 ar
    42   26   27 1
    43   26   28 ar
    44   27   45 1
    45   27   46 1
    46   28   29 ar
    47   28   48 1
    48   29   30 ar
    49   29   47 1
    50   30   31 ar
@<TRIPOS>SUBSTRUCTURE
     1 ACP         1 GROUP 0 A     ****
@<TRIPOS>MOLECULE
[[5-(6-amino-1,8-dihydropurine-6,8-diylium-7-id-9-yl)-3,4-dihydroxy-tetrahydrofuran-2-yl]methoxy-oxido-phosphoryl]oxy-(phosphonomethyl)phosphinate
   48    50     1     0     0
SMALL
USER_CHARGES

@<TRIPOS>ATOM
      1 PG         -4.8004   -4.2671   -1.2713 P.3       1 ACP         1.6558
      2 O1G        -5.0559   -5.5415   -2.0183 O.2       1 ACP        -0.9020
      3 O2G        -5.3753   -2.9274   -1.9675 O.3       1 ACP        -0.8036
      4 O3G        -3.2453   -3.9195   -1.0060 O.3       1 ACP        -0.8036
      5 PB         -5.0824   -5.4246    1.7138 P.3       1 ACP         1.4945
      6 O1B        -5.4437   -6.8010    1.2051 O.co2     1 ACP        -0.8481
      7 O2B        -5.6208   -4.8781    3.0156 O.co2     1 ACP        -0.8481
      8 C3B        -5.5220   -4.2159    0.3846 C.3       1 ACP        -0.6636
      9 PA         -2.2659   -6.0657    2.3941 P.3       1 ACP         1.6023
     10 O1A        -2.2515   -7.4733    1.8381 O.co2     1 ACP        -0.8673
     11 O2A        -2.3601   -5.8271    3.8855 O.co2     1 ACP        -0.8673
     12 O3A        -3.4639   -5.2319    1.6613 O.3       1 ACP        -0.8150
     13 O5'        -0.9728   -5.2428    1.8236 O.3       1 ACP        -0.5522
     14 C5'        -0.7840   -3.8935    2.2172 C.3       1 ACP         0.2181
     15 C4'        -0.0724   -3.1466    1.1027 C.3       1 ACP         0.0915
     16 O4'        -0.8674   -3.1929   -0.0945 O.3       1 ACP        -0.3675
     17 C3'         0.1338   -1.6715    1.4027 C.3       1 ACP         0.0748
     18 O3'         1.2893   -1.4445    2.1808 O.3       1 ACP        -0.5646
     19 C2'         0.2158   -1.0724    0.0128 C.3       1 ACP         0.0804
     20 O2'         1.5141   -1.2448   -0.5513 O.3       1 ACP        -0.5882
     21 C1'        -0.7897   -1.9176   -0.7583 C.3       1 ACP         0.3809
     22 N9         -2.1040   -1.3333   -0.7704 N.pl3     1 ACP        -0.4412
     23 C8         -3.2124   -1.5345    0.2719 C.ar      1 ACP         0.1936
     24 N7         -4.2964   -0.8234   -0.0828 N.2       1 ACP        -0.2746
     25 C5         -3.8754   -0.2386   -1.2478 C.ar      1 ACP        -0.1386
     26 C6         -4.7432    0.6719   -2.0470 C.ar      1 ACP         0.4778
     27 N6         -5.9725    0.9415   -1.6366 N.pl3     1 ACP        -0.8290
     28 N1         -4.1703    1.1517   -3.1536 N.pl3     1 ACP        -0.6985
     29 C2         -2.8174    0.7994   -3.5215 C.ar      1 ACP         0.6179
     30 N3         -2.0475    0.0097   -2.8393 N.ar      1 ACP        -0.5105
     31 C4         -2.6278   -0.4836   -1.7071 C.ar      1 ACP         0.2753
     32 HOG2       -5.0565   -2.6826   -2.8622 H         1 ACP         0.4487
     33 HOG3       -2.6461   -3.8055   -1.7741 H         1 ACP         0.4487
     34 H3B1       -5.3133   -3.2262    0.8062 H         1 ACP         0.1088
     35 H3B2       -6.6087   -4.2882    0.2622 H         1 ACP         0.1088
     36 H5'1       -1.7614   -3.4428    2.4166 H         1 ACP         0.0327
     37 H5'2       -0.1870   -3.8724    3.1344 H         1 ACP         0.0327
     38 H4'         0.8883   -3.6447    0.8783 H         1 ACP         0.1275
     39 H3'        -0.7368   -1.2359    1.9871 H         1 ACP         0.0637
     40 HO3'        1.3407   -0.4871    2.3218 H         1 ACP         0.4127
     41 H2'        -0.0343   -0.0280    0.0196 H         1 ACP         0.0692
     42 HO2'        2.1443   -0.7955    0.0378 H         1 ACP         0.4431
     43 H1'        -0.5175   -2.1046   -1.7826 H         1 ACP         0.1199
     44 H8         -3.2310   -2.1319    1.1889 H         1 ACP         0.2941
     45 HN61       -6.3230    0.5316   -0.7829 H         1 ACP         0.4754
     46 HN62       -6.5628    1.5584   -2.1760 H         1 ACP         0.4754
     47 H2         -2.4822    1.2710   -4.4579 H         1 ACP         0.0886
     48 H48        -4.7200    1.7780   -3.7346 H         1 ACP         0.4707
@<TRIPOS>BOND
     1    1    2 2
     2    1    3 1
     3    1    4 1
     4    1    8 1
     5    3   32 1
     6    4   33 1
     7    5    6 2
     8    5    7 1
     9    5    8 1
    10    5   12 1
    11    8   34 1
    12    8   35 1
    13    9   10 2
    14    9   11 1
    15    9   12 1
    16    9   13 1
    17   13   14 1
    18   14   15 1
    19   14   36 1
    20   14   37 1
    21   15   16 1
    22   15   17 1
    23   15   38 1
    24   16   21 1
    25   17   18 1
    26   17   19 1
    27   17   39 1
    28   18   40 1
    29   19   20 1
    30   19   21 1
    31   19   41 1
    32   20   42 1
    33   21   22 1
    34   21   43 1
    35   22   23 ar
    36   22   31 ar
    37   23   24 ar
    38   23   44 1
    39   24   25 ar
    40   25   26 ar
    41   25   31 ar
    42   26   27 1
    43   26   28 ar
    44   27   45 1
    45   27   46 1
    46   28   29 ar
    47   28   48 1
    48   29   30 ar
    49   29   47 1
    50   30   31 ar
@<TRIPOS>SUBSTRUCTURE
     1 ACP         1 GROUP 0 A     ****
@<TRIPOS>MOLECULE
[[5-(6-amino-1,8-dihydropurine-6,8-diylium-7-id-9-yl)-3,4-dihydroxy-tetrahydrofuran-2-yl]methoxy-oxido-phosphoryl]oxy-(phosphonomethyl)phosphinate
   48    50     1     0     0
SMALL
USER_CHARGES

@<TRIPOS>ATOM
      1 PG          1.2564    2.9936   -7.1600 P.3       1 ACP         1.6558
      2 O1G        -0.1496    2.9829   -7.6800 O.2       1 ACP        -0.9020
      3 O2G         2.2507    4.0509   -7.8698 O.3       1 ACP        -0.8036
      4 O3G         2.0488    1.5907   -7.2762 O.3       1 ACP        -0.8036
      5 PB          0.6033    2.4037   -4.0688 P.3       1 ACP         1.4945
      6 O1B        -0.8862    2.4213   -4.3230 O.co2     1 ACP        -0.8481
      7 O2B         1.2033    2.8491   -2.7554 O.co2     1 ACP        -0.8481
      8 C3B         1.3996    3.4033   -5.4059 C.3       1 ACP        -0.6636
      9 PA          2.7380    0.3741   -4.4295 P.3       1 ACP         1.6023
     10 O1A         3.6394    1.3278   -5.1833 O.co2     1 ACP        -0.8673
     11 O2A         2.7083   -1.0978   -4.7798 O.co2     1 ACP        -0.8673
     12 O3A         1.2106    0.9496   -4.4885 O.3       1 ACP        -0.8150
     13 O5'         3.0199    0.5139   -2.8245 O.3       1 ACP        -0.5522
     14 C5'         2.2816   -0.2918   -1.9206 C.3       1 ACP         0.2181
     15 C4'         2.7248    0.0226   -0.4980 C.3       1 ACP         0.0915
     16 O4'         2.4697    1.4219   -0.2462 O.3       1 ACP        -0.3675
     17 C3'         1.9404   -0.7419    0.5596 C.3       1 ACP         0.0748
     18 O3'         2.7418   -0.8086    1.7389 O.3       1 ACP        -0.5646
     19 C2'         0.7477    0.1630    0.7858 C.3       1 ACP         0.0804
     20 O2'         0.1373   -0.0577    2.0407 O.3       1 ACP        -0.5882
     21 C1'         1.3733    1.5427    0.6747 C.3       1 ACP         0.3809
     22 N9          0.4520    2.5240    0.1767 N.pl3     1 ACP        -0.4412
     23 C8         -1.0247    2.3053   -0.1800 C.ar      1 ACP         0.1936
     24 N7         -1.5580    3.4612   -0.6116 N.2       1 ACP        -0.2746
     25 C5         -0.4873    4.3110   -0.5222 C.ar      1 ACP        -0.1386
     26 C6         -0.5728    5.7505   -0.8981 C.ar      1 ACP         0.4778
     27 N6         -1.7163    6.2514   -1.3385 N.pl3     1 ACP        -0.8290
     28 N1          0.5667    6.4301   -0.7475 N.pl3     1 ACP        -0.6985
     29 C2          1.7697    5.7952   -0.2579 C.ar      1 ACP         0.6179
     30 N3          1.8633    4.5450    0.0742 N.ar      1 ACP        -0.5105
     31 C4          0.7014    3.8457   -0.0776 C.ar      1 ACP         0.2753
     32 HOG2        2.4124    3.9772   -8.8344 H         1 ACP         0.4487
     33 HOG3        2.1837    1.1931   -8.1626 H         1 ACP         0.4487
     34 H3B1        2.4667    3.4291   -5.1580 H         1 ACP         0.1088
     35 H3B2        1.0186    4.4237   -5.2837 H         1 ACP         0.1088
     36 H5'1        1.2154   -0.0780   -2.0455 H         1 ACP         0.0327
     37 H5'2        2.4646   -1.3453   -2.1548 H         1 ACP         0.0327
     38 H4'         3.8046   -0.1390   -0.4011 H         1 ACP         0.1275
     39 H3'         1.6787   -1.7627    0.2719 H         1 ACP         0.0637
     40 HO3'        2.9082    0.1071    2.0091 H         1 ACP         0.4127
     41 H2'         0.0002   -0.0084   -0.0014 H         1 ACP         0.0692
     42 HO2'       -0.1554   -0.9852    2.0577 H         1 ACP         0.4431
     43 H1'         1.7718    1.9211    1.6015 H         1 ACP         0.1199
     44 H8         -1.6458    1.4054   -0.1318 H         1 ACP         0.2941
     45 HN61       -2.5307    5.6598   -1.4199 H         1 ACP         0.4754
     46 HN62       -1.7773    7.2266   -1.5938 H         1 ACP         0.4754
     47 H2          2.6279    6.4808   -0.1872 H         1 ACP         0.0886
     48 H48         0.5621    7.4166   -0.9900 H         1 ACP         0.4707
@<TRIPOS>BOND
     1    1    2 2
     2    1    3 1
     3    1    4 1
     4    1    8 1
     5    3   32 1
     6    4   33 1
     7    5    6 2
     8    5    7 1
     9    5    8 1
    10    5   12 1
    11    8   34 1
    12    8   35 1
    13    9   10 2
    14    9   11 1
    15    9   12 1
    16    9   13 1
    17   13   14 1
    18   14   15 1
    19   14   36 1
    20   14   37 1
    21   15   16 1
    22   15   17 1
    23   15   38 1
    24   16   21 1
    25   17   18 1
    26   17   19 1
    27   17   39 1
    28   18   40 1
    29   19   20 1
    30   19   21 1
    31   19   41 1
    32   20   42 1
    33   21   22 1
    34   21   43 1
    35   22   23 ar
    36   22   31 ar
    37   23   24 ar
    38   23   44 1
    39   24   25 ar
    40   25   26 ar
    41   25   31 ar
    42   26   27 1
    43   26   28 ar
    44   27   45 1
    45   27   46 1
    46   28   29 ar
    47   28   48 1
    48   29   30 ar
    49   29   47 1
    50   30   31 ar
@<TRIPOS>SUBSTRUCTURE
     1 ACP         1 GROUP 0 A     ****
@<TRIPOS>MOLECULE
[[5-(6-amino-1,8-dihydropurine-6,8-diylium-7-id-9-yl)-3,4-dihydroxy-tetrahydrofuran-2-yl]methoxy-oxido-phosphoryl]oxy-(phosphonomethyl)phosphinate
   48    50     1     0     0
SMALL
USER_CHARGES

@<TRIPOS>ATOM
      1 PG          7.7854   -1.5204   -2.4377 P.3       1 ACP         1.6558
      2 O1G         8.1396   -1.9210   -1.0372 O.2       1 ACP        -0.9020
      3 O2G         9.0367   -1.1588   -3.3936 O.3       1 ACP        -0.8036
      4 O3G         6.8237   -0.2289   -2.5667 O.3       1 ACP        -0.8036
      5 PB          5.2667   -3.4746   -2.8472 P.3       1 ACP         1.4945
      6 O1B         5.4628   -4.1028   -1.4869 O.co2     1 ACP        -0.8481
      7 O2B         4.7029   -4.2452   -4.0184 O.co2     1 ACP        -0.8481
      8 C3B         6.9009   -2.7875   -3.3746 C.3       1 ACP        -0.6636
      9 PA          3.9981   -0.9679   -3.8029 P.3       1 ACP         1.6023
     10 O1A         2.9471   -1.6100   -4.6826 O.co2     1 ACP        -0.8673
     11 O2A         5.2319   -0.3374   -4.4112 O.co2     1 ACP        -0.8673
     12 O3A         4.4739   -2.0589   -2.6844 O.3       1 ACP        -0.8150
     13 O5'         3.2885    0.1337   -2.8242 O.3       1 ACP        -0.5522
     14 C5'         2.2816   -0.2918   -1.9206 C.3       1 ACP         0.2181
     15 C4'         2.7248    0.0226   -0.4980 C.3       1 ACP         0.0915
     16 O4'         2.4697    1.4219   -0.2462 O.3       1 ACP        -0.3675
     17 C3'         1.9404   -0.7419    0.5596 C.3       1 ACP         0.0748
     18 O3'         2.7418   -0.8086    1.7389 O.3       1 ACP        -0.5646
     19 C2'         0.7477    0.1630    0.7858 C.3       1 ACP         0.0804
     20 O2'         0.1373   -0.0577    2.0407 O.3       1 ACP        -0.5882
     21 C1'         1.3733    1.5427    0.6747 C.3       1 ACP         0.3809
     22 N9          0.4520    2.5240    0.1767 N.pl3     1 ACP        -0.4412
     23 C8          0.5793    3.3338   -1.1209 C.ar      1 ACP         0.1936
     24 N7         -0.4807    4.1508   -1.2458 N.2       1 ACP        -0.2746
     25 C5         -1.1921    3.8572   -0.1126 C.ar      1 ACP        -0.1386
     26 C6         -2.4855    4.5203    0.2163 C.ar      1 ACP         0.4778
     27 N6         -2.9873    5.4319   -0.6020 N.pl3     1 ACP        -0.8290
     28 N1         -3.0414    4.1119    1.3596 N.pl3     1 ACP        -0.6985
     29 C2         -2.4169    3.1071    2.1904 C.ar      1 ACP         0.6179
     30 N3         -1.2928    2.5191    1.9210 N.ar      1 ACP        -0.5105
     31 C4         -0.7202    2.9326    0.7534 C.ar      1 ACP         0.2753
     32 HOG2        9.6330   -0.4232   -3.1377 H         1 ACP         0.4487
     33 HOG3        7.1286    0.6290   -2.2017 H         1 ACP         0.4487
     34 H3B1        6.7443   -2.4009   -4.3880 H         1 ACP         0.1088
     35 H3B2        7.5734   -3.6485   -3.4617 H         1 ACP         0.1088
     36 H5'1        1.3501    0.2325   -2.1561 H         1 ACP         0.0327
     37 H5'2        2.1268   -1.3683   -2.0445 H         1 ACP         0.0327
     38 H4'         3.8046   -0.1390   -0.4011 H         1 ACP         0.1275
     39 H3'         1.6787   -1.7627    0.2719 H         1 ACP         0.0637
     40 HO3'        3.5553   -1.2733    1.4913 H         1 ACP         0.4127
     41 H2'         0.0002   -0.0084   -0.0014 H         1 ACP         0.0692
     42 HO2'        0.8091    0.1203    2.7213 H         1 ACP         0.4431
     43 H1'         1.7718    1.9211    1.6015 H         1 ACP         0.1199
     44 H8          1.3565    3.3309   -1.8916 H         1 ACP         0.2941
     45 HN61       -2.4952    5.6785   -1.4487 H         1 ACP         0.4754
     46 HN62       -3.8637    5.8828   -0.3819 H         1 ACP         0.4754
     47 H2         -2.9911    2.8734    3.1000 H         1 ACP         0.0886
     48 H48        -3.9253    4.5332    1.6302 H         1 ACP         0.4707
@<TRIPOS>BOND
     1    1    2 2
     2    1    3 1
     3    1    4 1
     4    1    8 1
     5    3   32 1
     6    4   33 1
     7    5    6 2
     8    5    7 1
     9    5    8 1
    10    5   12 1
    11    8   34 1
    12    8   35 1
    13    9   10 2
    14    9   11 1
    15    9   12 1
    16    9   13 1
    17   13   14 1
    18   14   15 1
    19   14   36 1
    20   14   37 1
    21   15   16 1
    22   15   17 1
    23   15   38 1
    24   16   21 1
    25   17   18 1
    26   17   19 1
    27   17   39 1
    28   18   40 1
    29   19   20 1
    30   19   21 1
    31   19   41 1
    32   20   42 1
    33   21   22 1
    34   21   43 1
    35   22   23 ar
    36   22   31 ar
    37   23   24 ar
    38   23   44 1
    39   24   25 ar
    40   25   26 ar
    41   25   31 ar
    42   26   27 1
    43   26   28 ar
    44   27   45 1
    45   27   46 1
    46   28   29 ar
    47   28   48 1
    48   29   30 ar
    49   29   47 1
    50   30   31 ar
@<TRIPOS>SUBSTRUCTURE
     1 ACP         1 GROUP 0 A     ****
@<TRIPOS>MOLECULE
[[5-(6-amino-1,8-dihydropurine-6,8-diylium-7-id-9-yl)-3,4-dihydroxy-tetrahydrofuran-2-yl]methoxy-oxido-phosphoryl]oxy-(phosphonomethyl)phosphinate
   48    50     1     0     0
SMALL
USER_CHARGES

@<TRIPOS>ATOM
      1 PG         -0.8704   -8.7810    5.0760 P.3       1 ACP         1.6558
      2 O1G        -0.0306   -8.4475    6.2722 O.2       1 ACP        -0.9020
      3 O2G        -1.0906  -10.3576    4.8004 O.3       1 ACP        -0.8036
      4 O3G        -0.3183   -8.2225    3.6643 O.3       1 ACP        -0.8036
      5 PB         -2.9374   -6.3277    5.2728 P.3       1 ACP         1.4945
      6 O1B        -2.3060   -5.8261    6.5508 O.co2     1 ACP        -0.8481
      7 O2B        -4.4097   -6.1564    4.9786 O.co2     1 ACP        -0.8481
      8 C3B        -2.5559   -8.1329    5.1443 C.3       1 ACP        -0.6636
      9 PA         -2.2659   -6.0657    2.3941 P.3       1 ACP         1.6023
     10 O1A        -3.5371   -5.3651    1.9652 O.co2     1 ACP        -0.8673
     11 O2A        -2.0598   -7.5360    2.1012 O.co2     1 ACP        -0.8673
     12 O3A        -2.0569   -5.8242    3.9959 O.3       1 ACP        -0.8150
     13 O5'        -0.9728   -5.2428    1.8236 O.3       1 ACP        -0.5522
     14 C5'        -0.7840   -3.8935    2.2172 C.3       1 ACP         0.2181
     15 C4'        -0.0724   -3.1466    1.1027 C.3       1 ACP         0.0915
     16 O4'        -0.8674   -3.1929   -0.0945 O.3       1 ACP        -0.3675
     17 C3'         0.1338   -1.6715    1.4027 C.3       1 ACP         0.0748
     18 O3'         1.2893   -1.4445    2.1808 O.3       1 ACP        -0.5646
     19 C2'         0.2158   -1.0724    0.0128 C.3       1 ACP         0.0804
     20 O2'         1.5141   -1.2448   -0.5513 O.3       1 ACP        -0.5882
     21 C1'        -0.7897   -1.9176   -0.7583 C.3       1 ACP         0.3809
     22 N9         -2.1040   -1.3333   -0.7704 N.pl3     1 ACP        -0.4412
     23 C8         -3.2124   -1.5345    0.2719 C.ar      1 ACP         0.1936
     24 N7         -4.2964   -0.8234   -0.0828 N.2       1 ACP        -0.2746
     25 C5         -3.8754   -0.2386   -1.2478 C.ar      1 ACP        -0.1386
     26 C6         -4.7432    0.6719   -2.0470 C.ar      1 ACP         0.4778
     27 N6         -5.9725    0.9415   -1.6366 N.pl3     1 ACP        -0.8290
     28 N1         -4.1703    1.1517   -3.1536 N.pl3     1 ACP        -0.6985
     29 C2         -2.8174    0.7994   -3.5215 C.ar      1 ACP         0.6179
     30 N3         -2.0475    0.0097   -2.8393 N.ar      1 ACP        -0.5105
     31 C4         -2.6278   -0.4836   -1.7071 C.ar      1 ACP         0.2753
     32 HOG2       -0.3075  -10.9255    4.6387 H         1 ACP         0.4487
     33 HOG3        0.5666   -8.5092    3.3532 H         1 ACP         0.4487
     34 H3B1       -3.0811   -8.4815    4.2480 H         1 ACP         0.1088
     35 H3B2       -3.0450   -8.6039    6.0046 H         1 ACP         0.1088
     36 H5'1       -1.7614   -3.4428    2.4166 H         1 ACP         0.0327
     37 H5'2       -0.1870   -3.8724    3.1344 H         1 ACP         0.0327
     38 H4'         0.8883   -3.6447    0.8783 H         1 ACP         0.1275
     39 H3'        -0.7368   -1.2359    1.9871 H         1 ACP         0.0637
     40 HO3'        1.3407   -0.4871    2.3218 H         1 ACP         0.4127
     41 H2'        -0.0343   -0.0280    0.0196 H         1 ACP         0.0692
     42 HO2'        2.1443   -0.7955    0.0378 H         1 ACP         0.4431
     43 H1'        -0.5175   -2.1046   -1.7826 H         1 ACP         0.1199
     44 H8         -3.2310   -2.1319    1.1889 H         1 ACP         0.2941
     45 HN61       -6.3230    0.5316   -0.7829 H         1 ACP         0.4754
     46 HN62       -6.5628    1.5584   -2.1760 H         1 ACP         0.4754
     47 H2         -2.4822    1.2710   -4.4579 H         1 ACP         0.0886
     48 H48        -4.7200    1.7780   -3.7346 H         1 ACP         0.4707
@<TRIPOS>BOND
     1    1    2 2
     2    1    3 1
     3    1    4 1
     4    1    8 1
     5    3   32 1
     6    4   33 1
     7    5    6 2
     8    5    7 1
     9    5    8 1
    10    5   12 1
    11    8   34 1
    12    8   35 1
    13    9   10 2
    14    9   11 1
    15    9   12 1
    16    9   13 1
    17   13   14 1
    18   14   15 1
    19   14   36 1
    20   14   37 1
    21   15   16 1
    22   15   17 1
    23   15   38 1
    24   16   21 1
    25   17   18 1
    26   17   19 1
    27   17   39 1
    28   18   40 1
    29   19   20 1
    30   19   21 1
    31   19   41 1
    32   20   42 1
    33   21   22 1
    34   21   43 1
    35   22   23 ar
    36   22   31 ar
    37   23   24 ar
    38   23   44 1
    39   24   25 ar
    40   25   26 ar
    41   25   31 ar
    42   26   27 1
    43   26   28 ar
    44   27   45 1
    45   27   46 1
    46   28   29 ar
    47   28   48 1
    48   29   30 ar
    49   29   47 1
    50   30   31 ar
@<TRIPOS>SUBSTRUCTURE
     1 ACP         1 GROUP 0 A     ****
@<TRIPOS>MOLECULE
[[5-(6-amino-1,8-dihydropurine-6,8-diylium-7-id-9-yl)-3,4-dihydroxy-tetrahydrofuran-2-yl]methoxy-oxido-phosphoryl]oxy-(phosphonomethyl)phosphinate
   48    50     1     0     0
SMALL
USER_CHARGES

@<TRIPOS>ATOM
      1 PG         -0.1413   -5.5747   -3.0284 P.3       1 ACP         1.6558
      2 O1G        -1.4047   -5.6020   -2.2220 O.2       1 ACP        -0.9020
      3 O2G         0.3837   -7.0128   -3.5446 O.3       1 ACP        -0.8036
      4 O3G         1.1454   -4.9476   -2.2795 O.3       1 ACP        -0.8036
      5 PB         -0.6407   -2.7954   -4.5632 P.3       1 ACP         1.4945
      6 O1B        -2.0033   -2.6280   -3.9319 O.co2     1 ACP        -0.8481
      7 O2B        -0.3228   -2.2769   -5.9466 O.co2     1 ACP        -0.8481
      8 C3B        -0.2475   -4.6026   -4.5480 C.3       1 ACP        -0.6636
      9 PA          2.1358   -2.2685   -3.6578 P.3       1 ACP         1.6023
     10 O1A         2.4970   -1.2612   -4.7281 O.co2     1 ACP        -0.8673
     11 O2A         2.6457   -3.6911   -3.7347 O.co2     1 ACP        -0.8673
     12 O3A         0.5094   -2.3101   -3.5139 O.3       1 ACP        -0.8150
     13 O5'         2.5238   -1.6632   -2.1888 O.3       1 ACP        -0.5522
     14 C5'         2.2816   -0.2918   -1.9206 C.3       1 ACP         0.2181
     15 C4'         2.7248    0.0226   -0.4980 C.3       1 ACP         0.0915
     16 O4'         2.4697    1.4219   -0.2462 O.3       1 ACP        -0.3675
     17 C3'         1.9404   -0.7419    0.5596 C.3       1 ACP         0.0748
     18 O3'         2.7418   -0.8086    1.7389 O.3       1 ACP        -0.5646
     19 C2'         0.7477    0.1630    0.7858 C.3       1 ACP         0.0804
     20 O2'         0.1373   -0.0577    2.0407 O.3       1 ACP        -0.5882
     21 C1'         1.3733    1.5427    0.6747 C.3       1 ACP         0.3809
     22 N9          0.4520    2.5240    0.1767 N.pl3     1 ACP        -0.4412
     23 C8         -0.7463    2.2774   -0.7501 C.ar      1 ACP         0.1936
     24 N7         -1.3714    3.4419   -0.9948 N.2       1 ACP        -0.2746
     25 C5         -0.6104    4.3223   -0.2723 C.ar      1 ACP        -0.1386
     26 C6         -0.9062    5.7820   -0.2194 C.ar      1 ACP         0.4778
     27 N6         -1.9385    6.2713   -0.8881 N.pl3     1 ACP        -0.8290
     28 N1         -0.0613    6.4906    0.5336 N.pl3     1 ACP        -0.6985
     29 C2          1.0416    5.8662    1.2291 C.ar      1 ACP         0.6179
     30 N3          1.3146    4.5989    1.1954 N.ar      1 ACP        -0.5105
     31 C4          0.4541    3.8697    0.4273 C.ar      1 ACP         0.2753
     32 HOG2        0.6029   -7.7037   -2.8838 H         1 ACP         0.4487
     33 HOG3        1.4645   -5.3665   -1.4520 H         1 ACP         0.4487
     34 H3B1        0.7108   -4.6996   -5.0707 H         1 ACP         0.1088
     35 H3B2       -1.0057   -5.0790   -5.1800 H         1 ACP         0.1088
     36 H5'1        2.8430    0.3138   -2.6391 H         1 ACP         0.0327
     37 H5'2        1.2126   -0.0907   -2.0421 H         1 ACP         0.0327
     38 H4'         3.8046   -0.1390   -0.4011 H         1 ACP         0.1275
     39 H3'         1.6787   -1.7627    0.2719 H         1 ACP         0.0637
     40 HO3'        3.5553   -1.2733    1.4913 H         1 ACP         0.4127
     41 H2'         0.0002   -0.0084   -0.0014 H         1 ACP         0.0692
     42 HO2'       -0.1554   -0.9852    2.0577 H         1 ACP         0.4431
     43 H1'         1.7718    1.9211    1.6015 H         1 ACP         0.1199
     44 H8         -1.1244    1.3534   -1.1987 H         1 ACP         0.2941
     45 HN61       -2.5259    5.6573   -1.4336 H         1 ACP         0.4754
     46 HN62       -2.1416    7.2600   -0.8539 H         1 ACP         0.4754
     47 H2          1.6509    6.5764    1.8088 H         1 ACP         0.0886
     48 H48        -0.2190    7.4917    0.6033 H         1 ACP         0.4707
@<TRIPOS>BOND
     1    1    2 2
     2    1    3 1
     3    1    4 1
     4    1    8 1
     5    3   32 1
     6    4   33 1
     7    5    6 2
     8    5    7 1
     9    5    8 1
    10    5   12 1
    11    8   34 1
    12    8   35 1
    13    9   10 2
    14    9   11 1
    15    9   12 1
    16    9   13 1
    17   13   14 1
    18   14   15 1
    19   14   36 1
    20   14   37 1
    21   15   16 1
    22   15   17 1
    23   15   38 1
    24   16   21 1
    25   17   18 1
    26   17   19 1
    27   17   39 1
    28   18   40 1
    29   19   20 1
    30   19   21 1
    31   19   41 1
    32   20   42 1
    33   21   22 1
    34   21   43 1
    35   22   23 ar
    36   22   31 ar
    37   23   24 ar
    38   23   44 1
    39   24   25 ar
    40   25   26 ar
    41   25   31 ar
    42   26   27 1
    43   26   28 ar
    44   27   45 1
    45   27   46 1
    46   28   29 ar
    47   28   48 1
    48   29   30 ar
    49   29   47 1
    50   30   31 ar
@<TRIPOS>SUBSTRUCTURE
     1 ACP         1 GROUP 0 A     ****
@<TRIPOS>MOLECULE
[[5-(6-amino-1,8-dihydropurine-6,8-diylium-7-id-9-yl)-3,4-dihydroxy-tetrahydrofuran-2-yl]methoxy-oxido-phosphoryl]oxy-(phosphonomethyl)phosphinate
   48    50     1     0     0
SMALL
USER_CHARGES

@<TRIPOS>ATOM
      1 PG          1.6431   -9.2757    1.8332 P.3       1 ACP         1.6558
      2 O1G         3.0908   -9.0308    1.5308 O.2       1 ACP        -0.9020
      3 O2G         1.1158  -10.7737    1.5362 O.3       1 ACP        -0.8036
      4 O3G         0.5996   -8.3400    1.0299 O.3       1 ACP        -0.8036
      5 PB          1.3923   -7.3860    4.4209 P.3       1 ACP         1.4945
      6 O1B         2.8625   -7.0392    4.3783 O.co2     1 ACP        -0.8481
      7 O2B         0.6177   -7.4605    5.7162 O.co2     1 ACP        -0.8481
      8 C3B         1.1872   -9.0110    3.5616 C.3       1 ACP        -0.6636
      9 PA         -1.0045   -6.4099    2.9689 P.3       1 ACP         1.6023
     10 O1A        -1.7675   -5.9091    4.1762 O.co2     1 ACP        -0.8673
     11 O2A        -1.3833   -7.7160    2.3052 O.co2     1 ACP        -0.8673
     12 O3A         0.5836   -6.4640    3.3461 O.3       1 ACP        -0.8150
     13 O5'        -0.9728   -5.2428    1.8236 O.3       1 ACP        -0.5522
     14 C5'        -0.7840   -3.8935    2.2172 C.3       1 ACP         0.2181
     15 C4'        -0.0724   -3.1466    1.1027 C.3       1 ACP         0.0915
     16 O4'        -0.8674   -3.1929   -0.0945 O.3       1 ACP        -0.3675
     17 C3'         0.1338   -1.6715    1.4027 C.3       1 ACP         0.0748
     18 O3'         1.2893   -1.4445    2.1808 O.3       1 ACP        -0.5646
     19 C2'         0.2158   -1.0724    0.0128 C.3       1 ACP         0.0804
     20 O2'         1.5141   -1.2448   -0.5513 O.3       1 ACP        -0.5882
     21 C1'        -0.7897   -1.9176   -0.7583 C.3       1 ACP         0.3809
     22 N9         -2.1040   -1.3333   -0.7704 N.pl3     1 ACP        -0.4412
     23 C8         -3.2124   -1.5345    0.2719 C.ar      1 ACP         0.1936
     24 N7         -4.2964   -0.8234   -0.0828 N.2       1 ACP        -0.2746
     25 C5         -3.8754   -0.2386   -1.2478 C.ar      1 ACP        -0.1386
     26 C6         -4.7432    0.6719   -2.0470 C.ar      1 ACP         0.4778
     27 N6         -5.9725    0.9415   -1.6366 N.pl3     1 ACP        -0.8290
     28 N1         -4.1703    1.1517   -3.1536 N.pl3     1 ACP        -0.6985
     29 C2         -2.8174    0.7994   -3.5215 C.ar      1 ACP         0.6179
     30 N3         -2.0475    0.0097   -2.8393 N.ar      1 ACP        -0.5105
     31 C4         -2.6278   -0.4836   -1.7071 C.ar      1 ACP         0.2753
     32 HOG2        1.1745  -11.1256    0.6226 H         1 ACP         0.4487
     33 HOG3        0.5904   -8.3714    0.0496 H         1 ACP         0.4487
     34 H3B1        0.1272   -9.2680    3.6675 H         1 ACP         0.1088
     35 H3B2        1.7528   -9.7373    4.1564 H         1 ACP         0.1088
     36 H5'1       -1.7614   -3.4428    2.4166 H         1 ACP         0.0327
     37 H5'2       -0.1870   -3.8724    3.1344 H         1 ACP         0.0327
     38 H4'         0.8883   -3.6447    0.8783 H         1 ACP         0.1275
     39 H3'        -0.7368   -1.2359    1.9871 H         1 ACP         0.0637
     40 HO3'        1.3407   -0.4871    2.3218 H         1 ACP         0.4127
     41 H2'        -0.0343   -0.0280    0.0196 H         1 ACP         0.0692
     42 HO2'        2.1443   -0.7955    0.0378 H         1 ACP         0.4431
     43 H1'        -0.5175   -2.1046   -1.7826 H         1 ACP         0.1199
     44 H8         -3.2310   -2.1319    1.1889 H         1 ACP         0.2941
     45 HN61       -6.3230    0.5316   -0.7829 H         1 ACP         0.4754
     46 HN62       -6.5628    1.5584   -2.1760 H         1 ACP         0.4754
     47 H2         -2.4822    1.2710   -4.4579 H         1 ACP         0.0886
     48 H48        -4.7200    1.7780   -3.7346 H         1 ACP         0.4707
@<TRIPOS>BOND
     1    1    2 2
     2    1    3 1
     3    1    4 1
     4    1    8 1
     5    3   32 1
     6    4   33 1
     7    5    6 2
     8    5    7 1
     9    5    8 1
    10    5   12 1
    11    8   34 1
    12    8   35 1
    13    9   10 2
    14    9   11 1
    15    9   12 1
    16    9   13 1
    17   13   14 1
    18   14   15 1
    19   14   36 1
    20   14   37 1
    21   15   16 1
    22   15   17 1
    23   15   38 1
    24   16   21 1
    25   17   18 1
    26   17   19 1
    27   17   39 1
    28   18   40 1
    29   19   20 1
    30   19   21 1
    31   19   41 1
    32   20   42 1
    33   21   22 1
    34   21   43 1
    35   22   23 ar
    36   22   31 ar
    37   23   24 ar
    38   23   44 1
    39   24   25 ar
    40   25   26 ar
    41   25   31 ar
    42   26   27 1
    43   26   28 ar
    44   27   45 1
    45   27   46 1
    46   28   29 ar
    47   28   48 1
    48   29   30 ar
    49   29   47 1
    50   30   31 ar
@<TRIPOS>SUBSTRUCTURE
     1 ACP         1 GROUP 0 A     ****
@<TRIPOS>MOLECULE
[[5-(6-amino-1,8-dihydropurine-6,8-diylium-7-id-9-yl)-3,4-dihydroxy-tetrahydrofuran-2-yl]methoxy-oxido-phosphoryl]oxy-(phosphonomethyl)phosphinate
   48    50     1     0     0
SMALL
USER_CHARGES

@<TRIPOS>ATOM
      1 PG         -4.0772   -8.9643    0.5625 P.3       1 ACP         1.6558
      2 O1G        -5.5188   -8.7318    0.2231 O.2       1 ACP        -0.9020
      3 O2G        -3.5095  -10.4350    0.2091 O.3       1 ACP        -0.8036
      4 O3G        -3.6925   -8.7731    2.1197 O.3       1 ACP        -0.8036
      5 PB         -2.9723   -6.0205   -0.1033 P.3       1 ACP         1.4945
      6 O1B        -4.3300   -5.5585   -0.5794 O.co2     1 ACP        -0.8481
      7 O2B        -1.6863   -5.4771   -0.6816 O.co2     1 ACP        -0.8481
      8 C3B        -2.9244   -7.8605   -0.2849 C.3       1 ACP        -0.6636
      9 PA         -1.7146   -6.3345    2.5661 P.3       1 ACP         1.6023
     10 O1A        -1.2620   -7.7508    2.2839 O.co2     1 ACP        -0.8673
     11 O2A        -2.1427   -5.9251    3.9586 O.co2     1 ACP        -0.8673
     12 O3A        -2.9154   -5.9576    1.5252 O.3       1 ACP        -0.8150
     13 O5'        -0.5696   -5.2856    2.0523 O.3       1 ACP        -0.5522
     14 C5'        -0.7840   -3.8935    2.2172 C.3       1 ACP         0.2181
     15 C4'        -0.0724   -3.1466    1.1027 C.3       1 ACP         0.0915
     16 O4'        -0.8674   -3.1929   -0.0945 O.3       1 ACP        -0.3675
     17 C3'         0.1338   -1.6715    1.4027 C.3       1 ACP         0.0748
     18 O3'         1.2893   -1.4445    2.1808 O.3       1 ACP        -0.5646
     19 C2'         0.2158   -1.0724    0.0128 C.3       1 ACP         0.0804
     20 O2'         1.5141   -1.2448   -0.5513 O.3       1 ACP        -0.5882
     21 C1'        -0.7897   -1.9176   -0.7583 C.3       1 ACP         0.3809
     22 N9         -2.1040   -1.3333   -0.7704 N.pl3     1 ACP        -0.4412
     23 C8         -3.2124   -1.5345    0.2719 C.ar      1 ACP         0.1936
     24 N7         -4.2964   -0.8234   -0.0828 N.2       1 ACP        -0.2746
     25 C5         -3.8754   -0.2386   -1.2478 C.ar      1 ACP        -0.1386
     26 C6         -4.7432    0.6719   -2.0470 C.ar      1 ACP         0.4778
     27 N6         -5.9725    0.9415   -1.6366 N.pl3     1 ACP        -0.8290
     28 N1         -4.1703    1.1517   -3.1536 N.pl3     1 ACP        -0.6985
     29 C2         -2.8174    0.7994   -3.5215 C.ar      1 ACP         0.6179
     30 N3         -2.0475    0.0097   -2.8393 N.ar      1 ACP        -0.5105
     31 C4         -2.6278   -0.4836   -1.7071 C.ar      1 ACP         0.2753
     32 HOG2       -3.9252  -11.2181    0.6285 H         1 ACP         0.4487
     33 HOG3       -4.1325   -9.3373    2.7906 H         1 ACP         0.4487
     34 H3B1       -1.9095   -8.1581    0.0022 H         1 ACP         0.1088
     35 H3B2       -3.0234   -8.0577   -1.3585 H         1 ACP         0.1088
     36 H5'1       -1.8599   -3.6947    2.1849 H         1 ACP         0.0327
     37 H5'2       -0.3934   -3.5882    3.1930 H         1 ACP         0.0327
     38 H4'         0.8883   -3.6447    0.8783 H         1 ACP         0.1275
     39 H3'        -0.7368   -1.2359    1.9871 H         1 ACP         0.0637
     40 HO3'        2.0373   -1.7816    1.6651 H         1 ACP         0.4127
     41 H2'        -0.0343   -0.0280    0.0196 H         1 ACP         0.0692
     42 HO2'        1.4978   -0.8409   -1.4361 H         1 ACP         0.4431
     43 H1'        -0.5175   -2.1046   -1.7826 H         1 ACP         0.1199
     44 H8         -3.2310   -2.1319    1.1889 H         1 ACP         0.2941
     45 HN61       -6.3230    0.5316   -0.7829 H         1 ACP         0.4754
     46 HN62       -6.5628    1.5584   -2.1760 H         1 ACP         0.4754
     47 H2         -2.4822    1.2710   -4.4579 H         1 ACP         0.0886
     48 H48        -4.7200    1.7780   -3.7346 H         1 ACP         0.4707
@<TRIPOS>BOND
     1    1    2 2
     2    1    3 1
     3    1    4 1
     4    1    8 1
     5    3   32 1
     6    4   33 1
     7    5    6 2
     8    5    7 1
     9    5    8 1
    10    5   12 1
    11    8   34 1
    12    8   35 1
    13    9   10 2
    14    9   11 1
    15    9   12 1
    16    9   13 1
    17   13   14 1
    18   14   15 1
    19   14   36 1
    20   14   37 1
    21   15   16 1
    22   15   17 1
    23   15   38 1
    24   16   21 1
    25   17   18 1
    26   17   19 1
    27   17   39 1
    28   18   40 1
    29   19   20 1
    30   19   21 1
    31   19   41 1
    32   20   42 1
    33   21   22 1
    34   21   43 1
    35   22   23 ar
    36   22   31 ar
    37   23   24 ar
    38   23   44 1
    39   24   25 ar
    40   25   26 ar
    41   25   31 ar
    42   26   27 1
    43   26   28 ar
    44   27   45 1
    45   27   46 1
    46   28   29 ar
    47   28   48 1
    48   29   30 ar
    49   29   47 1
    50   30   31 ar
@<TRIPOS>SUBSTRUCTURE
     1 ACP         1 GROUP 0 A     ****
@<TRIPOS>MOLECULE
[[5-(6-amino-1,8-dihydropurine-6,8-diylium-7-id-9-yl)-3,4-dihydroxy-tetrahydrofuran-2-yl]methoxy-oxido-phosphoryl]oxy-(phosphonomethyl)phosphinate
   48    50     1     0     0
SMALL
USER_CHARGES

@<TRIPOS>ATOM
      1 PG         -2.2487   -1.8149   -5.5720 P.3       1 ACP         1.6558
      2 O1G        -3.3825   -1.0922   -6.2350 O.2       1 ACP        -0.9020
      3 O2G        -0.7881   -1.5467   -6.2082 O.3       1 ACP        -0.8036
      4 O3G        -2.3670   -3.4260   -5.5593 O.3       1 ACP        -0.8036
      5 PB         -0.6962   -2.1563   -2.7786 P.3       1 ACP         1.4945
      6 O1B        -0.9233   -3.6503   -2.7717 O.co2     1 ACP        -0.8481
      7 O2B        -0.6154   -1.3463   -1.5054 O.co2     1 ACP        -0.8481
      8 C3B        -2.0221   -1.4050   -3.8267 C.3       1 ACP        -0.6636
      9 PA          2.1358   -2.2685   -3.6578 P.3       1 ACP         1.6023
     10 O1A         2.9130   -1.5310   -4.7268 O.co2     1 ACP        -0.8673
     11 O2A         2.1809   -3.7788   -3.5758 O.co2     1 ACP        -0.8673
     12 O3A         0.5726   -1.8024   -3.7398 O.3       1 ACP        -0.8150
     13 O5'         2.5238   -1.6632   -2.1888 O.3       1 ACP        -0.5522
     14 C5'         2.2816   -0.2918   -1.9206 C.3       1 ACP         0.2181
     15 C4'         2.7248    0.0226   -0.4980 C.3       1 ACP         0.0915
     16 O4'         2.4697    1.4219   -0.2462 O.3       1 ACP        -0.3675
     17 C3'         1.9404   -0.7419    0.5596 C.3       1 ACP         0.0748
     18 O3'         2.7418   -0.8086    1.7389 O.3       1 ACP        -0.5646
     19 C2'         0.7477    0.1630    0.7858 C.3       1 ACP         0.0804
     20 O2'         0.1373   -0.0577    2.0407 O.3       1 ACP        -0.5882
     21 C1'         1.3733    1.5427    0.6747 C.3       1 ACP         0.3809
     22 N9          0.4520    2.5240    0.1767 N.pl3     1 ACP        -0.4412
     23 C8         -0.7463    2.2774   -0.7501 C.ar      1 ACP         0.1936
     24 N7         -1.3714    3.4419   -0.9948 N.2       1 ACP        -0.2746
     25 C5         -0.6104    4.3223   -0.2723 C.ar      1 ACP        -0.1386
     26 C6         -0.9062    5.7820   -0.2194 C.ar      1 ACP         0.4778
     27 N6         -1.9385    6.2713   -0.8881 N.pl3     1 ACP        -0.8290
     28 N1         -0.0613    6.4906    0.5336 N.pl3     1 ACP        -0.6985
     29 C2          1.0416    5.8662    1.2291 C.ar      1 ACP         0.6179
     30 N3          1.3146    4.5989    1.1954 N.ar      1 ACP        -0.5105
     31 C4          0.4541    3.8697    0.4273 C.ar      1 ACP         0.2753
     32 HOG2       -0.6292   -1.7790   -7.1478 H         1 ACP         0.4487
     33 HOG3       -2.4162   -3.9056   -6.4134 H         1 ACP         0.4487
     34 H3B1       -1.8729   -0.3215   -3.7579 H         1 ACP         0.1088
     35 H3B2       -2.9674   -1.6301   -3.3200 H         1 ACP         0.1088
     36 H5'1        2.8430    0.3138   -2.6391 H         1 ACP         0.0327
     37 H5'2        1.2126   -0.0907   -2.0421 H         1 ACP         0.0327
     38 H4'         3.8046   -0.1390   -0.4011 H         1 ACP         0.1275
     39 H3'         1.6787   -1.7627    0.2719 H         1 ACP         0.0637
     40 HO3'        2.2231   -1.2979    2.3952 H         1 ACP         0.4127
     41 H2'         0.0002   -0.0084   -0.0014 H         1 ACP         0.0692
     42 HO2'       -0.1554   -0.9852    2.0577 H         1 ACP         0.4431
     43 H1'         1.7718    1.9211    1.6015 H         1 ACP         0.1199
     44 H8         -1.1244    1.3534   -1.1987 H         1 ACP         0.2941
     45 HN61       -2.5259    5.6573   -1.4336 H         1 ACP         0.4754
     46 HN62       -2.1416    7.2600   -0.8539 H         1 ACP         0.4754
     47 H2          1.6509    6.5764    1.8088 H         1 ACP         0.0886
     48 H48        -0.2190    7.4917    0.6033 H         1 ACP         0.4707
@<TRIPOS>BOND
     1    1    2 2
     2    1    3 1
     3    1    4 1
     4    1    8 1
     5    3   32 1
     6    4   33 1
     7    5    6 2
     8    5    7 1
     9    5    8 1
    10    5   12 1
    11    8   34 1
    12    8   35 1
    13    9   10 2
    14    9   11 1
    15    9   12 1
    16    9   13 1
    17   13   14 1
    18   14   15 1
    19   14   36 1
    20   14   37 1
    21   15   16 1
    22   15   17 1
    23   15   38 1
    24   16   21 1
    25   17   18 1
    26   17   19 1
    27   17   39 1
    28   18   40 1
    29   19   20 1
    30   19   21 1
    31   19   41 1
    32   20   42 1
    33   21   22 1
    34   21   43 1
    35   22   23 ar
    36   22   31 ar
    37   23   24 ar
    38   23   44 1
    39   24   25 ar
    40   25   26 ar
    41   25   31 ar
    42   26   27 1
    43   26   28 ar
    44   27   45 1
    45   27   46 1
    46   28   29 ar
    47   28   48 1
    48   29   30 ar
    49   29   47 1
    50   30   31 ar
@<TRIPOS>SUBSTRUCTURE
     1 ACP         1 GROUP 0 A     ****
@<TRIPOS>MOLECULE
[[5-(6-amino-1,8-dihydropurine-6,8-diylium-7-id-9-yl)-3,4-dihydroxy-tetrahydrofuran-2-yl]methoxy-oxido-phosphoryl]oxy-(phosphonomethyl)phosphinate
   48    50     1     0     0
SMALL
USER_CHARGES

@<TRIPOS>ATOM
      1 PG         -6.1671   -5.8675    0.2122 P.3       1 ACP         1.6558
      2 O1G        -6.2483   -6.1375    1.6846 O.2       1 ACP        -0.9020
      3 O2G        -7.2593   -4.8254   -0.3635 O.3       1 ACP        -0.8036
      4 O3G        -6.3384   -7.1613   -0.7398 O.3       1 ACP        -0.8036
      5 PB         -2.9723   -6.0205   -0.1033 P.3       1 ACP         1.4945
      6 O1B        -1.9044   -5.1208   -0.6810 O.co2     1 ACP        -0.8481
      7 O2B        -3.1528   -7.4515   -0.5541 O.co2     1 ACP        -0.8481
      8 C3B        -4.5946   -5.1620   -0.3309 C.3       1 ACP        -0.6636
      9 PA         -1.7146   -6.3345    2.5661 P.3       1 ACP         1.6023
     10 O1A        -1.2620   -7.7508    2.2839 O.co2     1 ACP        -0.8673
     11 O2A        -2.1427   -5.9251    3.9586 O.co2     1 ACP        -0.8673
     12 O3A        -2.9154   -5.9576    1.5252 O.3       1 ACP        -0.8150
     13 O5'        -0.5696   -5.2856    2.0523 O.3       1 ACP        -0.5522
     14 C5'        -0.7840   -3.8935    2.2172 C.3       1 ACP         0.2181
     15 C4'        -0.0724   -3.1466    1.1027 C.3       1 ACP         0.0915
     16 O4'        -0.8674   -3.1929   -0.0945 O.3       1 ACP        -0.3675
     17 C3'         0.1338   -1.6715    1.4027 C.3       1 ACP         0.0748
     18 O3'         1.2893   -1.4445    2.1808 O.3       1 ACP        -0.5646
     19 C2'         0.2158   -1.0724    0.0128 C.3       1 ACP         0.0804
     20 O2'         1.5141   -1.2448   -0.5513 O.3       1 ACP        -0.5882
     21 C1'        -0.7897   -1.9176   -0.7583 C.3       1 ACP         0.3809
     22 N9         -2.1040   -1.3333   -0.7704 N.pl3     1 ACP        -0.4412
     23 C8         -3.2124   -1.5345    0.2719 C.ar      1 ACP         0.1936
     24 N7         -4.2964   -0.8234   -0.0828 N.2       1 ACP        -0.2746
     25 C5         -3.8754   -0.2386   -1.2478 C.ar      1 ACP        -0.1386
     26 C6         -4.7432    0.6719   -2.0470 C.ar      1 ACP         0.4778
     27 N6         -5.9725    0.9415   -1.6366 N.pl3     1 ACP        -0.8290
     28 N1         -4.1703    1.1517   -3.1536 N.pl3     1 ACP        -0.6985
     29 C2         -2.8174    0.7994   -3.5215 C.ar      1 ACP         0.6179
     30 N3         -2.0475    0.0097   -2.8393 N.ar      1 ACP        -0.5105
     31 C4         -2.6278   -0.4836   -1.7071 C.ar      1 ACP         0.2753
     32 HOG2       -8.2126   -5.0351   -0.2678 H         1 ACP         0.4487
     33 HOG3       -7.1704   -7.6786   -0.6935 H         1 ACP         0.4487
     34 H3B1       -4.6744   -4.9638   -1.4057 H         1 ACP         0.1088
     35 H3B2       -4.4913   -4.1906    0.1661 H         1 ACP         0.1088
     36 H5'1       -1.8599   -3.6947    2.1849 H         1 ACP         0.0327
     37 H5'2       -0.3934   -3.5882    3.1930 H         1 ACP         0.0327
     38 H4'         0.8883   -3.6447    0.8783 H         1 ACP         0.1275
     39 H3'        -0.7368   -1.2359    1.9871 H         1 ACP         0.0637
     40 HO3'        1.3407   -0.4871    2.3218 H         1 ACP         0.4127
     41 H2'        -0.0343   -0.0280    0.0196 H         1 ACP         0.0692
     42 HO2'        2.1443   -0.7955    0.0378 H         1 ACP         0.4431
     43 H1'        -0.5175   -2.1046   -1.7826 H         1 ACP         0.1199
     44 H8         -3.2310   -2.1319    1.1889 H         1 ACP         0.2941
     45 HN61       -6.3230    0.5316   -0.7829 H         1 ACP         0.4754
     46 HN62       -6.5628    1.5584   -2.1760 H         1 ACP         0.4754
     47 H2         -2.4822    1.2710   -4.4579 H         1 ACP         0.0886
     48 H48        -4.7200    1.7780   -3.7346 H         1 ACP         0.4707
@<TRIPOS>BOND
     1    1    2 2
     2    1    3 1
     3    1    4 1
     4    1    8 1
     5    3   32 1
     6    4   33 1
     7    5    6 2
     8    5    7 1
     9    5    8 1
    10    5   12 1
    11    8   34 1
    12    8   35 1
    13    9   10 2
    14    9   11 1
    15    9   12 1
    16    9   13 1
    17   13   14 1
    18   14   15 1
    19   14   36 1
    20   14   37 1
    21   15   16 1
    22   15   17 1
    23   15   38 1
    24   16   21 1
    25   17   18 1
    26   17   19 1
    27   17   39 1
    28   18   40 1
    29   19   20 1
    30   19   21 1
    31   19   41 1
    32   20   42 1
    33   21   22 1
    34   21   43 1
    35   22   23 ar
    36   22   31 ar
    37   23   24 ar
    38   23   44 1
    39   24   25 ar
    40   25   26 ar
    41   25   31 ar
    42   26   27 1
    43   26   28 ar
    44   27   45 1
    45   27   46 1
    46   28   29 ar
    47   28   48 1
    48   29   30 ar
    49   29   47 1
    50   30   31 ar
@<TRIPOS>SUBSTRUCTURE
     1 ACP         1 GROUP 0 A     ****
@<TRIPOS>MOLECULE
[[5-(6-amino-1,8-dihydropurine-6,8-diylium-7-id-9-yl)-3,4-dihydroxy-tetrahydrofuran-2-yl]methoxy-oxido-phosphoryl]oxy-(phosphonomethyl)phosphinate
   48    50     1     0     0
SMALL
USER_CHARGES

@<TRIPOS>ATOM
      1 PG          7.1213   -3.9693   -3.4539 P.3       1 ACP         1.6558
      2 O1G         6.3773   -3.5927   -4.6997 O.2       1 ACP        -0.9020
      3 O2G         8.5533   -3.2479   -3.2559 O.3       1 ACP        -0.8036
      4 O3G         7.4633   -5.5405   -3.2993 O.3       1 ACP        -0.8036
      5 PB          5.7439   -1.8690   -1.4485 P.3       1 ACP         1.4945
      6 O1B         7.0039   -1.0390   -1.3642 O.co2     1 ACP        -0.8481
      7 O2B         4.7748   -1.9846   -0.2948 O.co2     1 ACP        -0.8481
      8 C3B         6.2481   -3.5851   -1.9191 C.3       1 ACP        -0.6636
      9 PA          3.5289   -2.0703   -3.4131 P.3       1 ACP         1.6023
     10 O1A         3.6276   -3.5779   -3.5025 O.co2     1 ACP        -0.8673
     11 O2A         3.1544   -1.2491   -4.6277 O.co2     1 ACP        -0.8673
     12 O3A         4.9348   -1.4941   -2.8138 O.3       1 ACP        -0.8150
     13 O5'         2.5238   -1.6632   -2.1888 O.3       1 ACP        -0.5522
     14 C5'         2.2816   -0.2918   -1.9206 C.3       1 ACP         0.2181
     15 C4'         2.7248    0.0226   -0.4980 C.3       1 ACP         0.0915
     16 O4'         2.4697    1.4219   -0.2462 O.3       1 ACP        -0.3675
     17 C3'         1.9404   -0.7419    0.5596 C.3       1 ACP         0.0748
     18 O3'         2.7418   -0.8086    1.7389 O.3       1 ACP        -0.5646
     19 C2'         0.7477    0.1630    0.7858 C.3       1 ACP         0.0804
     20 O2'         0.1373   -0.0577    2.0407 O.3       1 ACP        -0.5882
     21 C1'         1.3733    1.5427    0.6747 C.3       1 ACP         0.3809
     22 N9          0.4520    2.5240    0.1767 N.pl3     1 ACP        -0.4412
     23 C8         -0.3054    2.4845   -1.1576 C.ar      1 ACP         0.1936
     24 N7         -1.0755    3.5806   -1.2691 N.2       1 ACP        -0.2746
     25 C5         -0.8043    4.2306   -0.0942 C.ar      1 ACP        -0.1386
     26 C6         -1.4324    5.5335    0.2646 C.ar      1 ACP         0.4778
     27 N6         -2.2885    6.1054   -0.5675 N.pl3     1 ACP        -0.8290
     28 N1         -1.0537    6.0229    1.4478 N.pl3     1 ACP        -0.6985
     29 C2         -0.1096    5.3242    2.2908 C.ar      1 ACP         0.6179
     30 N3          0.4468    4.1904    1.9960 N.ar      1 ACP        -0.5105
     31 C4          0.0631    3.6855    0.7877 C.ar      1 ACP         0.2753
     32 HOG2        9.2501   -3.3814   -3.9331 H         1 ACP         0.4487
     33 HOG3        8.0165   -5.9758   -3.9824 H         1 ACP         0.4487
     34 H3B1        5.3258   -4.1768   -1.9060 H         1 ACP         0.1088
     35 H3B2        6.8731   -3.9496   -1.0958 H         1 ACP         0.1088
     36 H5'1        2.8430    0.3138   -2.6391 H         1 ACP         0.0327
     37 H5'2        1.2126   -0.0907   -2.0421 H         1 ACP         0.0327
     38 H4'         3.8046   -0.1390   -0.4011 H         1 ACP         0.1275
     39 H3'         1.6787   -1.7627    0.2719 H         1 ACP         0.0637
     40 HO3'        3.5553   -1.2733    1.4913 H         1 ACP         0.4127
     41 H2'         0.0002   -0.0084   -0.0014 H         1 ACP         0.0692
     42 HO2'       -0.1554   -0.9852    2.0577 H         1 ACP         0.4431
     43 H1'         1.7718    1.9211    1.6015 H         1 ACP         0.1199
     44 H8         -0.2991    1.7413   -1.9611 H         1 ACP         0.2941
     45 HN61       -2.5167    5.6603   -1.4447 H         1 ACP         0.4754
     46 HN62       -2.7159    6.9882   -0.3270 H         1 ACP         0.4754
     47 H2          0.1059    5.8491    3.2340 H         1 ACP         0.0886
     48 H48        -1.4532    6.9099    1.7401 H         1 ACP         0.4707
@<TRIPOS>BOND
     1    1    2 2
     2    1    3 1
     3    1    4 1
     4    1    8 1
     5    3   32 1
     6    4   33 1
     7    5    6 2
     8    5    7 1
     9    5    8 1
    10    5   12 1
    11    8   34 1
    12    8   35 1
    13    9   10 2
    14    9   11 1
    15    9   12 1
    16    9   13 1
    17   13   14 1
    18   14   15 1
    19   14   36 1
    20   14   37 1
    21   15   16 1
    22   15   17 1
    23   15   38 1
    24   16   21 1
    25   17   18 1
    26   17   19 1
    27   17   39 1
    28   18   40 1
    29   19   20 1
    30   19   21 1
    31   19   41 1
    32   20   42 1
    33   21   22 1
    34   21   43 1
    35   22   23 ar
    36   22   31 ar
    37   23   24 ar
    38   23   44 1
    39   24   25 ar
    40   25   26 ar
    41   25   31 ar
    42   26   27 1
    43   26   28 ar
    44   27   45 1
    45   27   46 1
    46   28   29 ar
    47   28   48 1
    48   29   30 ar
    49   29   47 1
    50   30   31 ar
@<TRIPOS>SUBSTRUCTURE
     1 ACP         1 GROUP 0 A     ****
@<TRIPOS>MOLECULE
[[5-(6-amino-1,8-dihydropurine-6,8-diylium-7-id-9-yl)-3,4-dihydroxy-tetrahydrofuran-2-yl]methoxy-oxido-phosphoryl]oxy-(phosphonomethyl)phosphinate
   48    50     1     0     0
SMALL
USER_CHARGES

@<TRIPOS>ATOM
      1 PG         -2.1500    0.7965   -4.4768 P.3       1 ACP         1.6558
      2 O1G        -2.5258    0.6493   -3.0330 O.2       1 ACP        -0.9020
      3 O2G        -3.3842    1.0126   -5.4967 O.3       1 ACP        -0.8036
      4 O3G        -1.3452   -0.4509   -5.1139 O.3       1 ACP        -0.8036
      5 PB          0.6033    2.4037   -4.0688 P.3       1 ACP         1.4945
      6 O1B         0.4136    2.4584   -2.5707 O.co2     1 ACP        -0.8481
      7 O2B         1.3160    3.4957   -4.8326 O.co2     1 ACP        -0.8481
      8 C3B        -1.0719    2.2040   -4.8268 C.3       1 ACP        -0.6636
      9 PA          2.7380    0.3741   -4.4295 P.3       1 ACP         1.6023
     10 O1A         3.6394    1.3278   -5.1833 O.co2     1 ACP        -0.8673
     11 O2A         2.7083   -1.0978   -4.7798 O.co2     1 ACP        -0.8673
     12 O3A         1.2106    0.9496   -4.4885 O.3       1 ACP        -0.8150
     13 O5'         3.0199    0.5139   -2.8245 O.3       1 ACP        -0.5522
     14 C5'         2.2816   -0.2918   -1.9206 C.3       1 ACP         0.2181
     15 C4'         2.7248    0.0226   -0.4980 C.3       1 ACP         0.0915
     16 O4'         2.4697    1.4219   -0.2462 O.3       1 ACP        -0.3675
     17 C3'         1.9404   -0.7419    0.5596 C.3       1 ACP         0.0748
     18 O3'         2.7418   -0.8086    1.7389 O.3       1 ACP        -0.5646
     19 C2'         0.7477    0.1630    0.7858 C.3       1 ACP         0.0804
     20 O2'         0.1373   -0.0577    2.0407 O.3       1 ACP        -0.5882
     21 C1'         1.3733    1.5427    0.6747 C.3       1 ACP         0.3809
     22 N9          0.4520    2.5240    0.1767 N.pl3     1 ACP        -0.4412
     23 C8         -1.0247    2.3053   -0.1800 C.ar      1 ACP         0.1936
     24 N7         -1.5580    3.4612   -0.6116 N.2       1 ACP        -0.2746
     25 C5         -0.4873    4.3110   -0.5222 C.ar      1 ACP        -0.1386
     26 C6         -0.5728    5.7505   -0.8981 C.ar      1 ACP         0.4778
     27 N6         -1.7163    6.2514   -1.3385 N.pl3     1 ACP        -0.8290
     28 N1          0.5667    6.4301   -0.7475 N.pl3     1 ACP        -0.6985
     29 C2          1.7697    5.7952   -0.2579 C.ar      1 ACP         0.6179
     30 N3          1.8633    4.5450    0.0742 N.ar      1 ACP        -0.5105
     31 C4          0.7014    3.8457   -0.0776 C.ar      1 ACP         0.2753
     32 HOG2       -4.0771    0.3211   -5.5572 H         1 ACP         0.4487
     33 HOG3       -1.7696   -1.3350   -5.1238 H         1 ACP         0.4487
     34 H3B1       -0.9104    2.2358   -5.9102 H         1 ACP         0.1088
     35 H3B2       -1.6305    3.1086   -4.5605 H         1 ACP         0.1088
     36 H5'1        1.2154   -0.0780   -2.0455 H         1 ACP         0.0327
     37 H5'2        2.4646   -1.3453   -2.1548 H         1 ACP         0.0327
     38 H4'         3.8046   -0.1390   -0.4011 H         1 ACP         0.1275
     39 H3'         1.6787   -1.7627    0.2719 H         1 ACP         0.0637
     40 HO3'        2.9082    0.1071    2.0091 H         1 ACP         0.4127
     41 H2'         0.0002   -0.0084   -0.0014 H         1 ACP         0.0692
     42 HO2'       -0.1554   -0.9852    2.0577 H         1 ACP         0.4431
     43 H1'         1.7718    1.9211    1.6015 H         1 ACP         0.1199
     44 H8         -1.6458    1.4054   -0.1318 H         1 ACP         0.2941
     45 HN61       -2.5307    5.6598   -1.4199 H         1 ACP         0.4754
     46 HN62       -1.7773    7.2266   -1.5938 H         1 ACP         0.4754
     47 H2          2.6279    6.4808   -0.1872 H         1 ACP         0.0886
     48 H48         0.5621    7.4166   -0.9900 H         1 ACP         0.4707
@<TRIPOS>BOND
     1    1    2 2
     2    1    3 1
     3    1    4 1
     4    1    8 1
     5    3   32 1
     6    4   33 1
     7    5    6 2
     8    5    7 1
     9    5    8 1
    10    5   12 1
    11    8   34 1
    12    8   35 1
    13    9   10 2
    14    9   11 1
    15    9   12 1
    16    9   13 1
    17   13   14 1
    18   14   15 1
    19   14   36 1
    20   14   37 1
    21   15   16 1
    22   15   17 1
    23   15   38 1
    24   16   21 1
    25   17   18 1
    26   17   19 1
    27   17   39 1
    28   18   40 1
    29   19   20 1
    30   19   21 1
    31   19   41 1
    32   20   42 1
    33   21   22 1
    34   21   43 1
    35   22   23 ar
    36   22   31 ar
    37   23   24 ar
    38   23   44 1
    39   24   25 ar
    40   25   26 ar
    41   25   31 ar
    42   26   27 1
    43   26   28 ar
    44   27   45 1
    45   27   46 1
    46   28   29 ar
    47   28   48 1
    48   29   30 ar
    49   29   47 1
    50   30   31 ar
@<TRIPOS>SUBSTRUCTURE
     1 ACP         1 GROUP 0 A     ****
@<TRIPOS>MOLECULE
[[5-(6-amino-1,8-dihydropurine-6,8-diylium-7-id-9-yl)-3,4-dihydroxy-tetrahydrofuran-2-yl]methoxy-oxido-phosphoryl]oxy-(phosphonomethyl)phosphinate
   48    50     1     0     0
SMALL
USER_CHARGES

@<TRIPOS>ATOM
      1 PG         -4.5943   -2.0541    4.2802 P.3       1 ACP         1.6558
      2 O1G        -3.6374   -2.0754    3.1264 O.2       1 ACP        -0.9020
      3 O2G        -5.6507   -3.2755    4.3283 O.3       1 ACP        -0.8036
      4 O3G        -5.5286   -0.7401    4.3812 O.3       1 ACP        -0.8036
      5 PB         -2.7318   -3.5303    6.4439 P.3       1 ACP         1.4945
      6 O1B        -3.5768   -4.7823    6.3988 O.co2     1 ACP        -0.8481
      7 O2B        -2.0076   -3.0899    7.6950 O.co2     1 ACP        -0.8481
      8 C3B        -3.8055   -2.1243    5.9045 C.3       1 ACP        -0.6636
      9 PA         -0.5283   -4.5720    4.7510 P.3       1 ACP         1.6023
     10 O1A        -1.1738   -5.8924    4.3898 O.co2     1 ACP        -0.8673
     11 O2A         0.5701   -4.5098    5.7900 O.co2     1 ACP        -0.8673
     12 O3A        -1.7033   -3.5212    5.1784 O.3       1 ACP        -0.8150
     13 O5'         0.0100   -3.8402    3.3910 O.3       1 ACP        -0.5522
     14 C5'        -0.7840   -3.8935    2.2172 C.3       1 ACP         0.2181
     15 C4'        -0.0724   -3.1466    1.1027 C.3       1 ACP         0.0915
     16 O4'        -0.8674   -3.1929   -0.0945 O.3       1 ACP        -0.3675
     17 C3'         0.1338   -1.6715    1.4027 C.3       1 ACP         0.0748
     18 O3'         1.2893   -1.4445    2.1808 O.3       1 ACP        -0.5646
     19 C2'         0.2158   -1.0724    0.0128 C.3       1 ACP         0.0804
     20 O2'         1.5141   -1.2448   -0.5513 O.3       1 ACP        -0.5882
     21 C1'        -0.7897   -1.9176   -0.7583 C.3       1 ACP         0.3809
     22 N9         -2.1040   -1.3333   -0.7704 N.pl3     1 ACP        -0.4412
     23 C8         -3.2124   -1.5345    0.2719 C.ar      1 ACP         0.1936
     24 N7         -4.2964   -0.8234   -0.0828 N.2       1 ACP        -0.2746
     25 C5         -3.8754   -0.2386   -1.2478 C.ar      1 ACP        -0.1386
     26 C6         -4.7432    0.6719   -2.0470 C.ar      1 ACP         0.4778
     27 N6         -5.9725    0.9415   -1.6366 N.pl3     1 ACP        -0.8290
     28 N1         -4.1703    1.1517   -3.1536 N.pl3     1 ACP        -0.6985
     29 C2         -2.8174    0.7994   -3.5215 C.ar      1 ACP         0.6179
     30 N3         -2.0475    0.0097   -2.8393 N.ar      1 ACP        -0.5105
     31 C4         -2.6278   -0.4836   -1.7071 C.ar      1 ACP         0.2753
     32 HOG2       -6.2707   -3.3973    3.5781 H         1 ACP         0.4487
     33 HOG3       -6.1323   -0.5280    3.6379 H         1 ACP         0.4487
     34 H3B1       -3.1887   -1.2249    6.0121 H         1 ACP         0.1088
     35 H3B2       -4.6046   -2.0546    6.6513 H         1 ACP         0.1088
     36 H5'1       -0.9357   -4.9414    1.9397 H         1 ACP         0.0327
     37 H5'2       -1.7557   -3.4349    2.4259 H         1 ACP         0.0327
     38 H4'         0.8883   -3.6447    0.8783 H         1 ACP         0.1275
     39 H3'        -0.7368   -1.2359    1.9871 H         1 ACP         0.0637
     40 HO3'        1.1625   -1.9325    3.0084 H         1 ACP         0.4127
     41 H2'        -0.0343   -0.0280    0.0196 H         1 ACP         0.0692
     42 HO2'        2.1443   -0.7955    0.0378 H         1 ACP         0.4431
     43 H1'        -0.5175   -2.1046   -1.7826 H         1 ACP         0.1199
     44 H8         -3.2310   -2.1319    1.1889 H         1 ACP         0.2941
     45 HN61       -6.3230    0.5316   -0.7829 H         1 ACP         0.4754
     46 HN62       -6.5628    1.5584   -2.1760 H         1 ACP         0.4754
     47 H2         -2.4822    1.2710   -4.4579 H         1 ACP         0.0886
     48 H48        -4.7200    1.7780   -3.7346 H         1 ACP         0.4707
@<TRIPOS>BOND
     1    1    2 2
     2    1    3 1
     3    1    4 1
     4    1    8 1
     5    3   32 1
     6    4   33 1
     7    5    6 2
     8    5    7 1
     9    5    8 1
    10    5   12 1
    11    8   34 1
    12    8   35 1
    13    9   10 2
    14    9   11 1
    15    9   12 1
    16    9   13 1
    17   13   14 1
    18   14   15 1
    19   14   36 1
    20   14   37 1
    21   15   16 1
    22   15   17 1
    23   15   38 1
    24   16   21 1
    25   17   18 1
    26   17   19 1
    27   17   39 1
    28   18   40 1
    29   19   20 1
    30   19   21 1
    31   19   41 1
    32   20   42 1
    33   21   22 1
    34   21   43 1
    35   22   23 ar
    36   22   31 ar
    37   23   24 ar
    38   23   44 1
    39   24   25 ar
    40   25   26 ar
    41   25   31 ar
    42   26   27 1
    43   26   28 ar
    44   27   45 1
    45   27   46 1
    46   28   29 ar
    47   28   48 1
    48   29   30 ar
    49   29   47 1
    50   30   31 ar
@<TRIPOS>SUBSTRUCTURE
     1 ACP         1 GROUP 0 A     ****
@<TRIPOS>MOLECULE
[[5-(6-amino-1,8-dihydropurine-6,8-diylium-7-id-9-yl)-3,4-dihydroxy-tetrahydrofuran-2-yl]methoxy-oxido-phosphoryl]oxy-(phosphonomethyl)phosphinate
   48    50     1     0     0
SMALL
USER_CHARGES

@<TRIPOS>ATOM
      1 PG         -1.1846    1.0207   -4.3448 P.3       1 ACP         1.6558
      2 O1G        -1.9619    1.8818   -3.3953 O.2       1 ACP        -0.9020
      3 O2G        -2.0722    0.1019   -5.3339 O.3       1 ACP        -0.8036
      4 O3G        -0.1723   -0.0325   -3.6551 O.3       1 ACP        -0.8036
      5 PB          1.2509    3.0422   -4.9032 P.3       1 ACP         1.4945
      6 O1B         0.6262    4.1189   -4.0464 O.co2     1 ACP        -0.8481
      7 O2B         2.1068    3.3634   -6.1065 O.co2     1 ACP        -0.8481
      8 C3B        -0.1161    1.9369   -5.4781 C.3       1 ACP        -0.6636
      9 PA          2.8587    0.6155   -4.3269 P.3       1 ACP         1.6023
     10 O1A         4.0963    1.0194   -5.0986 O.co2     1 ACP        -0.8673
     11 O2A         1.8949   -0.4037   -4.8946 O.co2     1 ACP        -0.8673
     12 O3A         2.0199    1.9653   -3.9502 O.3       1 ACP        -0.8150
     13 O5'         3.2885    0.1337   -2.8242 O.3       1 ACP        -0.5522
     14 C5'         2.2816   -0.2918   -1.9206 C.3       1 ACP         0.2181
     15 C4'         2.7248    0.0226   -0.4980 C.3       1 ACP         0.0915
     16 O4'         2.4697    1.4219   -0.2462 O.3       1 ACP        -0.3675
     17 C3'         1.9404   -0.7419    0.5596 C.3       1 ACP         0.0748
     18 O3'         2.7418   -0.8086    1.7389 O.3       1 ACP        -0.5646
     19 C2'         0.7477    0.1630    0.7858 C.3       1 ACP         0.0804
     20 O2'         0.1373   -0.0577    2.0407 O.3       1 ACP        -0.5882
     21 C1'         1.3733    1.5427    0.6747 C.3       1 ACP         0.3809
     22 N9          0.4520    2.5240    0.1767 N.pl3     1 ACP        -0.4412
     23 C8          0.5793    3.3338   -1.1209 C.ar      1 ACP         0.1936
     24 N7         -0.4807    4.1508   -1.2458 N.2       1 ACP        -0.2746
     25 C5         -1.1921    3.8572   -0.1126 C.ar      1 ACP        -0.1386
     26 C6         -2.4855    4.5203    0.2163 C.ar      1 ACP         0.4778
     27 N6         -2.9873    5.4319   -0.6020 N.pl3     1 ACP        -0.8290
     28 N1         -3.0414    4.1119    1.3596 N.pl3     1 ACP        -0.6985
     29 C2         -2.4169    3.1071    2.1904 C.ar      1 ACP         0.6179
     30 N3         -1.2928    2.5191    1.9210 N.ar      1 ACP        -0.5105
     31 C4         -0.7202    2.9326    0.7534 C.ar      1 ACP         0.2753
     32 HOG2       -2.6846   -0.5590   -4.9463 H         1 ACP         0.4487
     33 HOG3       -0.5347   -0.7109   -3.0464 H         1 ACP         0.4487
     34 H3B1        0.3558    1.2100   -6.1488 H         1 ACP         0.1088
     35 H3B2       -0.7685    2.5647   -6.0957 H         1 ACP         0.1088
     36 H5'1        1.3501    0.2325   -2.1561 H         1 ACP         0.0327
     37 H5'2        2.1268   -1.3683   -2.0445 H         1 ACP         0.0327
     38 H4'         3.8046   -0.1390   -0.4011 H         1 ACP         0.1275
     39 H3'         1.6787   -1.7627    0.2719 H         1 ACP         0.0637
     40 HO3'        2.2231   -1.2979    2.3952 H         1 ACP         0.4127
     41 H2'         0.0002   -0.0084   -0.0014 H         1 ACP         0.0692
     42 HO2'       -0.1554   -0.9852    2.0577 H         1 ACP         0.4431
     43 H1'         1.7718    1.9211    1.6015 H         1 ACP         0.1199
     44 H8          1.3565    3.3309   -1.8916 H         1 ACP         0.2941
     45 HN61       -2.4952    5.6785   -1.4487 H         1 ACP         0.4754
     46 HN62       -3.8637    5.8828   -0.3819 H         1 ACP         0.4754
     47 H2         -2.9911    2.8734    3.1000 H         1 ACP         0.0886
     48 H48        -3.9253    4.5332    1.6302 H         1 ACP         0.4707
@<TRIPOS>BOND
     1    1    2 2
     2    1    3 1
     3    1    4 1
     4    1    8 1
     5    3   32 1
     6    4   33 1
     7    5    6 2
     8    5    7 1
     9    5    8 1
    10    5   12 1
    11    8   34 1
    12    8   35 1
    13    9   10 2
    14    9   11 1
    15    9   12 1
    16    9   13 1
    17   13   14 1
    18   14   15 1
    19   14   36 1
    20   14   37 1
    21   15   16 1
    22   15   17 1
    23   15   38 1
    24   16   21 1
    25   17   18 1
    26   17   19 1
    27   17   39 1
    28   18   40 1
    29   19   20 1
    30   19   21 1
    31   19   41 1
    32   20   42 1
    33   21   22 1
    34   21   43 1
    35   22   23 ar
    36   22   31 ar
    37   23   24 ar
    38   23   44 1
    39   24   25 ar
    40   25   26 ar
    41   25   31 ar
    42   26   27 1
    43   26   28 ar
    44   27   45 1
    45   27   46 1
    46   28   29 ar
    47   28   48 1
    48   29   30 ar
    49   29   47 1
    50   30   31 ar
@<TRIPOS>SUBSTRUCTURE
     1 ACP         1 GROUP 0 A     ****
@<TRIPOS>MOLECULE
[[5-(6-amino-1,8-dihydropurine-6,8-diylium-7-id-9-yl)-3,4-dihydroxy-tetrahydrofuran-2-yl]methoxy-oxido-phosphoryl]oxy-(phosphonomethyl)phosphinate
   48    50     1     0     0
SMALL
USER_CHARGES

@<TRIPOS>ATOM
      1 PG         -2.5140   -1.3841   -2.3658 P.3       1 ACP         1.6558
      2 O1G        -2.8630   -0.1515   -3.1443 O.2       1 ACP        -0.9020
      3 O2G        -3.6879   -1.9618   -1.4179 O.3       1 ACP        -0.8036
      4 O3G        -1.2550   -1.2378   -1.3642 O.3       1 ACP        -0.8036
      5 PB         -0.6407   -2.7954   -4.5632 P.3       1 ACP         1.4945
      6 O1B        -0.9010   -1.6988   -5.5698 O.co2     1 ACP        -0.8481
      7 O2B        -0.3855   -4.2264   -4.9764 O.co2     1 ACP        -0.8481
      8 C3B        -2.0662   -2.8077   -3.3848 C.3       1 ACP        -0.6636
      9 PA          2.1358   -2.2685   -3.6578 P.3       1 ACP         1.6023
     10 O1A         2.4970   -1.2612   -4.7281 O.co2     1 ACP        -0.8673
     11 O2A         2.6457   -3.6911   -3.7347 O.co2     1 ACP        -0.8673
     12 O3A         0.5094   -2.3101   -3.5139 O.3       1 ACP        -0.8150
     13 O5'         2.5238   -1.6632   -2.1888 O.3       1 ACP        -0.5522
     14 C5'         2.2816   -0.2918   -1.9206 C.3       1 ACP         0.2181
     15 C4'         2.7248    0.0226   -0.4980 C.3       1 ACP         0.0915
     16 O4'         2.4697    1.4219   -0.2462 O.3       1 ACP        -0.3675
     17 C3'         1.9404   -0.7419    0.5596 C.3       1 ACP         0.0748
     18 O3'         2.7418   -0.8086    1.7389 O.3       1 ACP        -0.5646
     19 C2'         0.7477    0.1630    0.7858 C.3       1 ACP         0.0804
     20 O2'         0.1373   -0.0577    2.0407 O.3       1 ACP        -0.5882
     21 C1'         1.3733    1.5427    0.6747 C.3       1 ACP         0.3809
     22 N9          0.4520    2.5240    0.1767 N.pl3     1 ACP        -0.4412
     23 C8         -0.7463    2.2774   -0.7501 C.ar      1 ACP         0.1936
     24 N7         -1.3714    3.4419   -0.9948 N.2       1 ACP        -0.2746
     25 C5         -0.6104    4.3223   -0.2723 C.ar      1 ACP        -0.1386
     26 C6         -0.9062    5.7820   -0.2194 C.ar      1 ACP         0.4778
     27 N6         -1.9385    6.2713   -0.8881 N.pl3     1 ACP        -0.8290
     28 N1         -0.0613    6.4906    0.5336 N.pl3     1 ACP        -0.6985
     29 C2          1.0416    5.8662    1.2291 C.ar      1 ACP         0.6179
     30 N3          1.3146    4.5989    1.1954 N.ar      1 ACP        -0.5105
     31 C4          0.4541    3.8697    0.4273 C.ar      1 ACP         0.2753
     32 HOG2       -4.0478   -1.3910   -0.7060 H         1 ACP         0.4487
     33 HOG3       -1.2946   -0.5716   -0.6455 H         1 ACP         0.4487
     34 H3B1       -1.8837   -3.6526   -2.7112 H         1 ACP         0.1088
     35 H3B2       -2.9477   -3.0618   -3.9844 H         1 ACP         0.1088
     36 H5'1        2.8430    0.3138   -2.6391 H         1 ACP         0.0327
     37 H5'2        1.2126   -0.0907   -2.0421 H         1 ACP         0.0327
     38 H4'         3.8046   -0.1390   -0.4011 H         1 ACP         0.1275
     39 H3'         1.6787   -1.7627    0.2719 H         1 ACP         0.0637
     40 HO3'        2.2231   -1.2979    2.3952 H         1 ACP         0.4127
     41 H2'         0.0002   -0.0084   -0.0014 H         1 ACP         0.0692
     42 HO2'       -0.1554   -0.9852    2.0577 H         1 ACP         0.4431
     43 H1'         1.7718    1.9211    1.6015 H         1 ACP         0.1199
     44 H8         -1.1244    1.3534   -1.1987 H         1 ACP         0.2941
     45 HN61       -2.5259    5.6573   -1.4336 H         1 ACP         0.4754
     46 HN62       -2.1416    7.2600   -0.8539 H         1 ACP         0.4754
     47 H2          1.6509    6.5764    1.8088 H         1 ACP         0.0886
     48 H48        -0.2190    7.4917    0.6033 H         1 ACP         0.4707
@<TRIPOS>BOND
     1    1    2 2
     2    1    3 1
     3    1    4 1
     4    1    8 1
     5    3   32 1
     6    4   33 1
     7    5    6 2
     8    5    7 1
     9    5    8 1
    10    5   12 1
    11    8   34 1
    12    8   35 1
    13    9   10 2
    14    9   11 1
    15    9   12 1
    16    9   13 1
    17   13   14 1
    18   14   15 1
    19   14   36 1
    20   14   37 1
    21   15   16 1
    22   15   17 1
    23   15   38 1
    24   16   21 1
    25   17   18 1
    26   17   19 1
    27   17   39 1
    28   18   40 1
    29   19   20 1
    30   19   21 1
    31   19   41 1
    32   20   42 1
    33   21   22 1
    34   21   43 1
    35   22   23 ar
    36   22   31 ar
    37   23   24 ar
    38   23   44 1
    39   24   25 ar
    40   25   26 ar
    41   25   31 ar
    42   26   27 1
    43   26   28 ar
    44   27   45 1
    45   27   46 1
    46   28   29 ar
    47   28   48 1
    48   29   30 ar
    49   29   47 1
    50   30   31 ar
@<TRIPOS>SUBSTRUCTURE
     1 ACP         1 GROUP 0 A     ****
@<TRIPOS>MOLECULE
[[5-(6-amino-1,8-dihydropurine-6,8-diylium-7-id-9-yl)-3,4-dihydroxy-tetrahydrofuran-2-yl]methoxy-oxido-phosphoryl]oxy-(phosphonomethyl)phosphinate
   48    50     1     0     0
SMALL
USER_CHARGES

@<TRIPOS>ATOM
      1 PG         -1.1846    1.0207   -4.3448 P.3       1 ACP         1.6558
      2 O1G        -1.9619    1.8818   -3.3953 O.2       1 ACP        -0.9020
      3 O2G        -2.0722    0.1019   -5.3339 O.3       1 ACP        -0.8036
      4 O3G        -0.1723   -0.0325   -3.6551 O.3       1 ACP        -0.8036
      5 PB          1.2509    3.0422   -4.9032 P.3       1 ACP         1.4945
      6 O1B         0.6262    4.1189   -4.0464 O.co2     1 ACP        -0.8481
      7 O2B         2.1068    3.3634   -6.1065 O.co2     1 ACP        -0.8481
      8 C3B        -0.1161    1.9369   -5.4781 C.3       1 ACP        -0.6636
      9 PA          2.8587    0.6155   -4.3269 P.3       1 ACP         1.6023
     10 O1A         4.0963    1.0194   -5.0986 O.co2     1 ACP        -0.8673
     11 O2A         1.8949   -0.4037   -4.8946 O.co2     1 ACP        -0.8673
     12 O3A         2.0199    1.9653   -3.9502 O.3       1 ACP        -0.8150
     13 O5'         3.2885    0.1337   -2.8242 O.3       1 ACP        -0.5522
     14 C5'         2.2816   -0.2918   -1.9206 C.3       1 ACP         0.2181
     15 C4'         2.7248    0.0226   -0.4980 C.3       1 ACP         0.0915
     16 O4'         2.4697    1.4219   -0.2462 O.3       1 ACP        -0.3675
     17 C3'         1.9404   -0.7419    0.5596 C.3       1 ACP         0.0748
     18 O3'         2.7418   -0.8086    1.7389 O.3       1 ACP        -0.5646
     19 C2'         0.7477    0.1630    0.7858 C.3       1 ACP         0.0804
     20 O2'         0.1373   -0.0577    2.0407 O.3       1 ACP        -0.5882
     21 C1'         1.3733    1.5427    0.6747 C.3       1 ACP         0.3809
     22 N9          0.4520    2.5240    0.1767 N.pl3     1 ACP        -0.4412
     23 C8         -0.7463    2.2774   -0.7501 C.ar      1 ACP         0.1936
     24 N7         -1.3714    3.4419   -0.9948 N.2       1 ACP        -0.2746
     25 C5         -0.6104    4.3223   -0.2723 C.ar      1 ACP        -0.1386
     26 C6         -0.9062    5.7820   -0.2194 C.ar      1 ACP         0.4778
     27 N6         -1.9385    6.2713   -0.8881 N.pl3     1 ACP        -0.8290
     28 N1         -0.0613    6.4906    0.5336 N.pl3     1 ACP        -0.6985
     29 C2          1.0416    5.8662    1.2291 C.ar      1 ACP         0.6179
     30 N3          1.3146    4.5989    1.1954 N.ar      1 ACP        -0.5105
     31 C4          0.4541    3.8697    0.4273 C.ar      1 ACP         0.2753
     32 HOG2       -2.6846   -0.5590   -4.9463 H         1 ACP         0.4487
     33 HOG3       -0.5347   -0.7109   -3.0464 H         1 ACP         0.4487
     34 H3B1        0.3558    1.2100   -6.1488 H         1 ACP         0.1088
     35 H3B2       -0.7685    2.5647   -6.0957 H         1 ACP         0.1088
     36 H5'1        1.3501    0.2325   -2.1561 H         1 ACP         0.0327
     37 H5'2        2.1268   -1.3683   -2.0445 H         1 ACP         0.0327
     38 H4'         3.8046   -0.1390   -0.4011 H         1 ACP         0.1275
     39 H3'         1.6787   -1.7627    0.2719 H         1 ACP         0.0637
     40 HO3'        3.5553   -1.2733    1.4913 H         1 ACP         0.4127
     41 H2'         0.0002   -0.0084   -0.0014 H         1 ACP         0.0692
     42 HO2'       -0.6132    0.5577    2.1063 H         1 ACP         0.4431
     43 H1'         1.7718    1.9211    1.6015 H         1 ACP         0.1199
     44 H8         -1.1244    1.3534   -1.1987 H         1 ACP         0.2941
     45 HN61       -2.5259    5.6573   -1.4336 H         1 ACP         0.4754
     46 HN62       -2.1416    7.2600   -0.8539 H         1 ACP         0.4754
     47 H2          1.6509    6.5764    1.8088 H         1 ACP         0.0886
     48 H48        -0.2190    7.4917    0.6033 H         1 ACP         0.4707
@<TRIPOS>BOND
     1    1    2 2
     2    1    3 1
     3    1    4 1
     4    1    8 1
     5    3   32 1
     6    4   33 1
     7    5    6 2
     8    5    7 1
     9    5    8 1
    10    5   12 1
    11    8   34 1
    12    8   35 1
    13    9   10 2
    14    9   11 1
    15    9   12 1
    16    9   13 1
    17   13   14 1
    18   14   15 1
    19   14   36 1
    20   14   37 1
    21   15   16 1
    22   15   17 1
    23   15   38 1
    24   16   21 1
    25   17   18 1
    26   17   19 1
    27   17   39 1
    28   18   40 1
    29   19   20 1
    30   19   21 1
    31   19   41 1
    32   20   42 1
    33   21   22 1
    34   21   43 1
    35   22   23 ar
    36   22   31 ar
    37   23   24 ar
    38   23   44 1
    39   24   25 ar
    40   25   26 ar
    41   25   31 ar
    42   26   27 1
    43   26   28 ar
    44   27   45 1
    45   27   46 1
    46   28   29 ar
    47   28   48 1
    48   29   30 ar
    49   29   47 1
    50   30   31 ar
@<TRIPOS>SUBSTRUCTURE
     1 ACP         1 GROUP 0 A     ****
@<TRIPOS>MOLECULE
[[5-(6-amino-1,8-dihydropurine-6,8-diylium-7-id-9-yl)-3,4-dihydroxy-tetrahydrofuran-2-yl]methoxy-oxido-phosphoryl]oxy-(phosphonomethyl)phosphinate
   48    50     1     0     0
SMALL
USER_CHARGES

@<TRIPOS>ATOM
      1 PG         -5.5095   -7.6504    0.5284 P.3       1 ACP         1.6558
      2 O1G        -5.2234   -7.8472    1.9868 O.2       1 ACP        -0.9020
      3 O2G        -6.8692   -6.8460    0.1903 O.3       1 ACP        -0.8036
      4 O3G        -5.6445   -9.0057   -0.3402 O.3       1 ACP        -0.8036
      5 PB         -3.7749   -4.9820    0.0801 P.3       1 ACP         1.4945
      6 O1B        -5.0166   -4.1326   -0.0622 O.co2     1 ACP        -0.8481
      7 O2B        -2.4908   -4.6631   -0.6498 O.co2     1 ACP        -0.8481
      8 C3B        -4.2434   -6.7162   -0.3603 C.3       1 ACP        -0.6636
      9 PA         -2.2659   -6.0657    2.3941 P.3       1 ACP         1.6023
     10 O1A        -2.2515   -7.4733    1.8381 O.co2     1 ACP        -0.8673
     11 O2A        -2.3601   -5.8271    3.8855 O.co2     1 ACP        -0.8673
     12 O3A        -3.4639   -5.2319    1.6613 O.3       1 ACP        -0.8150
     13 O5'        -0.9728   -5.2428    1.8236 O.3       1 ACP        -0.5522
     14 C5'        -0.7840   -3.8935    2.2172 C.3       1 ACP         0.2181
     15 C4'        -0.0724   -3.1466    1.1027 C.3       1 ACP         0.0915
     16 O4'        -0.8674   -3.1929   -0.0945 O.3       1 ACP        -0.3675
     17 C3'         0.1338   -1.6715    1.4027 C.3       1 ACP         0.0748
     18 O3'         1.2893   -1.4445    2.1808 O.3       1 ACP        -0.5646
     19 C2'         0.2158   -1.0724    0.0128 C.3       1 ACP         0.0804
     20 O2'         1.5141   -1.2448   -0.5513 O.3       1 ACP        -0.5882
     21 C1'        -0.7897   -1.9176   -0.7583 C.3       1 ACP         0.3809
     22 N9         -2.1040   -1.3333   -0.7704 N.pl3     1 ACP        -0.4412
     23 C8         -3.2124   -1.5345    0.2719 C.ar      1 ACP         0.1936
     24 N7         -4.2964   -0.8234   -0.0828 N.2       1 ACP        -0.2746
     25 C5         -3.8754   -0.2386   -1.2478 C.ar      1 ACP        -0.1386
     26 C6         -4.7432    0.6719   -2.0470 C.ar      1 ACP         0.4778
     27 N6         -5.9725    0.9415   -1.6366 N.pl3     1 ACP        -0.8290
     28 N1         -4.1703    1.1517   -3.1536 N.pl3     1 ACP        -0.6985
     29 C2         -2.8174    0.7994   -3.5215 C.ar      1 ACP         0.6179
     30 N3         -2.0475    0.0097   -2.8393 N.ar      1 ACP        -0.5105
     31 C4         -2.6278   -0.4836   -1.7071 C.ar      1 ACP         0.2753
     32 HOG2       -7.7261   -7.2111    0.4976 H         1 ACP         0.4487
     33 HOG3       -6.3400   -9.6552   -0.1025 H         1 ACP         0.4487
     34 H3B1       -3.3129   -7.2931   -0.3142 H         1 ACP         0.1088
     35 H3B2       -4.5483   -6.6855   -1.4126 H         1 ACP         0.1088
     36 H5'1       -1.7614   -3.4428    2.4166 H         1 ACP         0.0327
     37 H5'2       -0.1870   -3.8724    3.1344 H         1 ACP         0.0327
     38 H4'         0.8883   -3.6447    0.8783 H         1 ACP         0.1275
     39 H3'        -0.7368   -1.2359    1.9871 H         1 ACP         0.0637
     40 HO3'        1.1625   -1.9325    3.0084 H         1 ACP         0.4127
     41 H2'        -0.0343   -0.0280    0.0196 H         1 ACP         0.0692
     42 HO2'        1.4978   -0.8409   -1.4361 H         1 ACP         0.4431
     43 H1'        -0.5175   -2.1046   -1.7826 H         1 ACP         0.1199
     44 H8         -3.2310   -2.1319    1.1889 H         1 ACP         0.2941
     45 HN61       -6.3230    0.5316   -0.7829 H         1 ACP         0.4754
     46 HN62       -6.5628    1.5584   -2.1760 H         1 ACP         0.4754
     47 H2         -2.4822    1.2710   -4.4579 H         1 ACP         0.0886
     48 H48        -4.7200    1.7780   -3.7346 H         1 ACP         0.4707
@<TRIPOS>BOND
     1    1    2 2
     2    1    3 1
     3    1    4 1
     4    1    8 1
     5    3   32 1
     6    4   33 1
     7    5    6 2
     8    5    7 1
     9    5    8 1
    10    5   12 1
    11    8   34 1
    12    8   35 1
    13    9   10 2
    14    9   11 1
    15    9   12 1
    16    9   13 1
    17   13   14 1
    18   14   15 1
    19   14   36 1
    20   14   37 1
    21   15   16 1
    22   15   17 1
    23   15   38 1
    24   16   21 1
    25   17   18 1
    26   17   19 1
    27   17   39 1
    28   18   40 1
    29   19   20 1
    30   19   21 1
    31   19   41 1
    32   20   42 1
    33   21   22 1
    34   21   43 1
    35   22   23 ar
    36   22   31 ar
    37   23   24 ar
    38   23   44 1
    39   24   25 ar
    40   25   26 ar
    41   25   31 ar
    42   26   27 1
    43   26   28 ar
    44   27   45 1
    45   27   46 1
    46   28   29 ar
    47   28   48 1
    48   29   30 ar
    49   29   47 1
    50   30   31 ar
@<TRIPOS>SUBSTRUCTURE
     1 ACP         1 GROUP 0 A     ****
@<TRIPOS>MOLECULE
[[5-(6-amino-1,8-dihydropurine-6,8-diylium-7-id-9-yl)-3,4-dihydroxy-tetrahydrofuran-2-yl]methoxy-oxido-phosphoryl]oxy-(phosphonomethyl)phosphinate
   48    50     1     0     0
SMALL
USER_CHARGES

@<TRIPOS>ATOM
      1 PG          5.8413   -2.8761    0.3243 P.3       1 ACP         1.6558
      2 O1G         5.0025   -4.0984    0.5474 O.2       1 ACP        -0.9020
      3 O2G         6.9778   -2.6014    1.4393 O.3       1 ACP        -0.8036
      4 O3G         5.0293   -1.4811    0.2584 O.3       1 ACP        -0.8036
      5 PB          5.9670   -2.9896   -2.8853 P.3       1 ACP         1.4945
      6 O1B         5.1911   -4.2858   -2.9248 O.co2     1 ACP        -0.8481
      7 O2B         7.0154   -2.6446   -3.9174 O.co2     1 ACP        -0.8481
      8 C3B         6.7731   -2.8836   -1.2240 C.3       1 ACP        -0.6636
      9 PA          3.9981   -0.9679   -3.8029 P.3       1 ACP         1.6023
     10 O1A         2.9524   -1.9373   -4.3103 O.co2     1 ACP        -0.8673
     11 O2A         4.9008   -0.2324   -4.7694 O.co2     1 ACP        -0.8673
     12 O3A         4.9332   -1.7408   -2.7094 O.3       1 ACP        -0.8150
     13 O5'         3.2885    0.1337   -2.8242 O.3       1 ACP        -0.5522
     14 C5'         2.2816   -0.2918   -1.9206 C.3       1 ACP         0.2181
     15 C4'         2.7248    0.0226   -0.4980 C.3       1 ACP         0.0915
     16 O4'         2.4697    1.4219   -0.2462 O.3       1 ACP        -0.3675
     17 C3'         1.9404   -0.7419    0.5596 C.3       1 ACP         0.0748
     18 O3'         2.7418   -0.8086    1.7389 O.3       1 ACP        -0.5646
     19 C2'         0.7477    0.1630    0.7858 C.3       1 ACP         0.0804
     20 O2'         0.1373   -0.0577    2.0407 O.3       1 ACP        -0.5882
     21 C1'         1.3733    1.5427    0.6747 C.3       1 ACP         0.3809
     22 N9          0.4520    2.5240    0.1767 N.pl3     1 ACP        -0.4412
     23 C8          0.5793    3.3338   -1.1209 C.ar      1 ACP         0.1936
     24 N7         -0.4807    4.1508   -1.2458 N.2       1 ACP        -0.2746
     25 C5         -1.1921    3.8572   -0.1126 C.ar      1 ACP        -0.1386
     26 C6         -2.4855    4.5203    0.2163 C.ar      1 ACP         0.4778
     27 N6         -2.9873    5.4319   -0.6020 N.pl3     1 ACP        -0.8290
     28 N1         -3.0414    4.1119    1.3596 N.pl3     1 ACP        -0.6985
     29 C2         -2.4169    3.1071    2.1904 C.ar      1 ACP         0.6179
     30 N3         -1.2928    2.5191    1.9210 N.ar      1 ACP        -0.5105
     31 C4         -0.7202    2.9326    0.7534 C.ar      1 ACP         0.2753
     32 HOG2        6.7058   -2.4693    2.3724 H         1 ACP         0.4487
     33 HOG3        4.5007   -1.2018    1.0359 H         1 ACP         0.4487
     34 H3B1        7.3804   -1.9718   -1.2493 H         1 ACP         0.1088
     35 H3B2        7.4686   -3.7292   -1.1745 H         1 ACP         0.1088
     36 H5'1        1.3501    0.2325   -2.1561 H         1 ACP         0.0327
     37 H5'2        2.1268   -1.3683   -2.0445 H         1 ACP         0.0327
     38 H4'         3.8046   -0.1390   -0.4011 H         1 ACP         0.1275
     39 H3'         1.6787   -1.7627    0.2719 H         1 ACP         0.0637
     40 HO3'        2.2231   -1.2979    2.3952 H         1 ACP         0.4127
     41 H2'         0.0002   -0.0084   -0.0014 H         1 ACP         0.0692
     42 HO2'       -0.1554   -0.9852    2.0577 H         1 ACP         0.4431
     43 H1'         1.7718    1.9211    1.6015 H         1 ACP         0.1199
     44 H8          1.3565    3.3309   -1.8916 H         1 ACP         0.2941
     45 HN61       -2.4952    5.6785   -1.4487 H         1 ACP         0.4754
     46 HN62       -3.8637    5.8828   -0.3819 H         1 ACP         0.4754
     47 H2         -2.9911    2.8734    3.1000 H         1 ACP         0.0886
     48 H48        -3.9253    4.5332    1.6302 H         1 ACP         0.4707
@<TRIPOS>BOND
     1    1    2 2
     2    1    3 1
     3    1    4 1
     4    1    8 1
     5    3   32 1
     6    4   33 1
     7    5    6 2
     8    5    7 1
     9    5    8 1
    10    5   12 1
    11    8   34 1
    12    8   35 1
    13    9   10 2
    14    9   11 1
    15    9   12 1
    16    9   13 1
    17   13   14 1
    18   14   15 1
    19   14   36 1
    20   14   37 1
    21   15   16 1
    22   15   17 1
    23   15   38 1
    24   16   21 1
    25   17   18 1
    26   17   19 1
    27   17   39 1
    28   18   40 1
    29   19   20 1
    30   19   21 1
    31   19   41 1
    32   20   42 1
    33   21   22 1
    34   21   43 1
    35   22   23 ar
    36   22   31 ar
    37   23   24 ar
    38   23   44 1
    39   24   25 ar
    40   25   26 ar
    41   25   31 ar
    42   26   27 1
    43   26   28 ar
    44   27   45 1
    45   27   46 1
    46   28   29 ar
    47   28   48 1
    48   29   30 ar
    49   29   47 1
    50   30   31 ar
@<TRIPOS>SUBSTRUCTURE
     1 ACP         1 GROUP 0 A     ****
@<TRIPOS>MOLECULE
[[5-(6-amino-1,8-dihydropurine-6,8-diylium-7-id-9-yl)-3,4-dihydroxy-tetrahydrofuran-2-yl]methoxy-oxido-phosphoryl]oxy-(phosphonomethyl)phosphinate
   48    50     1     0     0
SMALL
USER_CHARGES

@<TRIPOS>ATOM
      1 PG          8.1213   -2.3526   -2.8962 P.3       1 ACP         1.6558
      2 O1G         9.0002   -3.4340   -2.3437 O.2       1 ACP        -0.9020
      3 O2G         6.8708   -2.8606   -3.7843 O.3       1 ACP        -0.8036
      4 O3G         8.8589   -1.2830   -3.8562 O.3       1 ACP        -0.8036
      5 PB          6.2125    0.0932   -2.0566 P.3       1 ACP         1.4945
      6 O1B         7.0018    1.0699   -2.8971 O.co2     1 ACP        -0.8481
      7 O2B         5.5177    0.5049   -0.7794 O.co2     1 ACP        -0.8481
      8 C3B         7.3424   -1.3111   -1.6415 C.3       1 ACP        -0.6636
      9 PA          3.9531   -0.2088   -3.9567 P.3       1 ACP         1.6023
     10 O1A         3.2272   -1.4155   -4.5112 O.co2     1 ACP        -0.8673
     11 O2A         4.4895    0.8608   -4.8830 O.co2     1 ACP        -0.8673
     12 O3A         5.1759   -0.7310   -3.0082 O.3       1 ACP        -0.8150
     13 O5'         3.0199    0.5139   -2.8245 O.3       1 ACP        -0.5522
     14 C5'         2.2816   -0.2918   -1.9206 C.3       1 ACP         0.2181
     15 C4'         2.7248    0.0226   -0.4980 C.3       1 ACP         0.0915
     16 O4'         2.4697    1.4219   -0.2462 O.3       1 ACP        -0.3675
     17 C3'         1.9404   -0.7419    0.5596 C.3       1 ACP         0.0748
     18 O3'         2.7418   -0.8086    1.7389 O.3       1 ACP        -0.5646
     19 C2'         0.7477    0.1630    0.7858 C.3       1 ACP         0.0804
     20 O2'         0.1373   -0.0577    2.0407 O.3       1 ACP        -0.5882
     21 C1'         1.3733    1.5427    0.6747 C.3       1 ACP         0.3809
     22 N9          0.4520    2.5240    0.1767 N.pl3     1 ACP        -0.4412
     23 C8          0.1798    2.8712   -1.2933 C.ar      1 ACP         0.1936
     24 N7         -0.7494    3.8400   -1.3610 N.2       1 ACP        -0.2746
     25 C5         -1.0173    4.0603   -0.0358 C.ar      1 ACP        -0.1386
     26 C6         -2.0105    5.0717    0.4241 C.ar      1 ACP         0.4778
     27 N6         -2.6723    5.7982   -0.4628 N.pl3     1 ACP        -0.8290
     28 N1         -2.1445    5.1522    1.7502 N.pl3     1 ACP        -0.6985
     29 C2         -1.3755    4.3143    2.6426 C.ar      1 ACP         0.6179
     30 N3         -0.5075    3.4292    2.2616 N.ar      1 ACP        -0.5105
     31 C4         -0.3667    3.3425    0.9070 C.ar      1 ACP         0.2753
     32 HOG2        7.0455   -3.3863   -4.5936 H         1 ACP         0.4487
     33 HOG3        9.2954   -1.6012   -4.6749 H         1 ACP         0.4487
     34 H3B1        6.7661   -1.9663   -0.9786 H         1 ACP         0.1088
     35 H3B2        8.1494   -0.8778   -1.0397 H         1 ACP         0.1088
     36 H5'1        1.2154   -0.0780   -2.0455 H         1 ACP         0.0327
     37 H5'2        2.4646   -1.3453   -2.1548 H         1 ACP         0.0327
     38 H4'         3.8046   -0.1390   -0.4011 H         1 ACP         0.1275
     39 H3'         1.6787   -1.7627    0.2719 H         1 ACP         0.0637
     40 HO3'        3.5553   -1.2733    1.4913 H         1 ACP         0.4127
     41 H2'         0.0002   -0.0084   -0.0014 H         1 ACP         0.0692
     42 HO2'        0.8091    0.1203    2.7213 H         1 ACP         0.4431
     43 H1'         1.7718    1.9211    1.6015 H         1 ACP         0.1199
     44 H8          0.6089    2.4651   -2.2147 H         1 ACP         0.2941
     45 HN61       -2.5055    5.6680   -1.4503 H         1 ACP         0.4754
     46 HN62       -3.3462    6.4841   -0.1542 H         1 ACP         0.4754
     47 H2         -1.5932    4.4937    3.7066 H         1 ACP         0.0886
     48 H48        -2.8098    5.8270    2.1160 H         1 ACP         0.4707
@<TRIPOS>BOND
     1    1    2 2
     2    1    3 1
     3    1    4 1
     4    1    8 1
     5    3   32 1
     6    4   33 1
     7    5    6 2
     8    5    7 1
     9    5    8 1
    10    5   12 1
    11    8   34 1
    12    8   35 1
    13    9   10 2
    14    9   11 1
    15    9   12 1
    16    9   13 1
    17   13   14 1
    18   14   15 1
    19   14   36 1
    20   14   37 1
    21   15   16 1
    22   15   17 1
    23   15   38 1
    24   16   21 1
    25   17   18 1
    26   17   19 1
    27   17   39 1
    28   18   40 1
    29   19   20 1
    30   19   21 1
    31   19   41 1
    32   20   42 1
    33   21   22 1
    34   21   43 1
    35   22   23 ar
    36   22   31 ar
    37   23   24 ar
    38   23   44 1
    39   24   25 ar
    40   25   26 ar
    41   25   31 ar
    42   26   27 1
    43   26   28 ar
    44   27   45 1
    45   27   46 1
    46   28   29 ar
    47   28   48 1
    48   29   30 ar
    49   29   47 1
    50   30   31 ar
@<TRIPOS>SUBSTRUCTURE
     1 ACP         1 GROUP 0 A     ****
@<TRIPOS>MOLECULE
[[5-(6-amino-1,8-dihydropurine-6,8-diylium-7-id-9-yl)-3,4-dihydroxy-tetrahydrofuran-2-yl]methoxy-oxido-phosphoryl]oxy-(phosphonomethyl)phosphinate
   48    50     1     0     0
SMALL
USER_CHARGES

@<TRIPOS>ATOM
      1 PG          0.5768    4.8920   -5.2376 P.3       1 ACP         1.6558
      2 O1G         0.3519    3.7743   -6.2109 O.2       1 ACP        -0.9020
      3 O2G        -0.6840    5.8756   -5.0068 O.3       1 ACP        -0.8036
      4 O3G         1.7825    5.9013   -5.6079 O.3       1 ACP        -0.8036
      5 PB          2.4811    3.3248   -3.1767 P.3       1 ACP         1.4945
      6 O1B         2.4819    3.0816   -1.6852 O.co2     1 ACP        -0.8481
      7 O2B         3.6564    3.9478   -3.8936 O.co2     1 ACP        -0.8481
      8 C3B         0.9920    4.3511   -3.5641 C.3       1 ACP        -0.6636
      9 PA          2.8587    0.6155   -4.3269 P.3       1 ACP         1.6023
     10 O1A         4.0963    1.0194   -5.0986 O.co2     1 ACP        -0.8673
     11 O2A         1.8949   -0.4037   -4.8946 O.co2     1 ACP        -0.8673
     12 O3A         2.0199    1.9653   -3.9502 O.3       1 ACP        -0.8150
     13 O5'         3.2885    0.1337   -2.8242 O.3       1 ACP        -0.5522
     14 C5'         2.2816   -0.2918   -1.9206 C.3       1 ACP         0.2181
     15 C4'         2.7248    0.0226   -0.4980 C.3       1 ACP         0.0915
     16 O4'         2.4697    1.4219   -0.2462 O.3       1 ACP        -0.3675
     17 C3'         1.9404   -0.7419    0.5596 C.3       1 ACP         0.0748
     18 O3'         2.7418   -0.8086    1.7389 O.3       1 ACP        -0.5646
     19 C2'         0.7477    0.1630    0.7858 C.3       1 ACP         0.0804
     20 O2'         0.1373   -0.0577    2.0407 O.3       1 ACP        -0.5882
     21 C1'         1.3733    1.5427    0.6747 C.3       1 ACP         0.3809
     22 N9          0.4520    2.5240    0.1767 N.pl3     1 ACP        -0.4412
     23 C8         -0.7463    2.2774   -0.7501 C.ar      1 ACP         0.1936
     24 N7         -1.3714    3.4419   -0.9948 N.2       1 ACP        -0.2746
     25 C5         -0.6104    4.3223   -0.2723 C.ar      1 ACP        -0.1386
     26 C6         -0.9062    5.7820   -0.2194 C.ar      1 ACP         0.4778
     27 N6         -1.9385    6.2713   -0.8881 N.pl3     1 ACP        -0.8290
     28 N1         -0.0613    6.4906    0.5336 N.pl3     1 ACP        -0.6985
     29 C2          1.0416    5.8662    1.2291 C.ar      1 ACP         0.6179
     30 N3          1.3146    4.5989    1.1954 N.ar      1 ACP        -0.5105
     31 C4          0.4541    3.8697    0.4273 C.ar      1 ACP         0.2753
     32 HOG2       -1.0476    6.3694   -5.7723 H         1 ACP         0.4487
     33 HOG3        1.7437    6.3982   -6.4526 H         1 ACP         0.4487
     34 H3B1        1.0815    5.2470   -2.9393 H         1 ACP         0.1088
     35 H3B2        0.1323    3.7845   -3.1886 H         1 ACP         0.1088
     36 H5'1        1.3501    0.2325   -2.1561 H         1 ACP         0.0327
     37 H5'2        2.1268   -1.3683   -2.0445 H         1 ACP         0.0327
     38 H4'         3.8046   -0.1390   -0.4011 H         1 ACP         0.1275
     39 H3'         1.6787   -1.7627    0.2719 H         1 ACP         0.0637
     40 HO3'        2.2231   -1.2979    2.3952 H         1 ACP         0.4127
     41 H2'         0.0002   -0.0084   -0.0014 H         1 ACP         0.0692
     42 HO2'       -0.6132    0.5577    2.1063 H         1 ACP         0.4431
     43 H1'         1.7718    1.9211    1.6015 H         1 ACP         0.1199
     44 H8         -1.1244    1.3534   -1.1987 H         1 ACP         0.2941
     45 HN61       -2.5259    5.6573   -1.4336 H         1 ACP         0.4754
     46 HN62       -2.1416    7.2600   -0.8539 H         1 ACP         0.4754
     47 H2          1.6509    6.5764    1.8088 H         1 ACP         0.0886
     48 H48        -0.2190    7.4917    0.6033 H         1 ACP         0.4707
@<TRIPOS>BOND
     1    1    2 2
     2    1    3 1
     3    1    4 1
     4    1    8 1
     5    3   32 1
     6    4   33 1
     7    5    6 2
     8    5    7 1
     9    5    8 1
    10    5   12 1
    11    8   34 1
    12    8   35 1
    13    9   10 2
    14    9   11 1
    15    9   12 1
    16    9   13 1
    17   13   14 1
    18   14   15 1
    19   14   36 1
    20   14   37 1
    21   15   16 1
    22   15   17 1
    23   15   38 1
    24   16   21 1
    25   17   18 1
    26   17   19 1
    27   17   39 1
    28   18   40 1
    29   19   20 1
    30   19   21 1
    31   19   41 1
    32   20   42 1
    33   21   22 1
    34   21   43 1
    35   22   23 ar
    36   22   31 ar
    37   23   24 ar
    38   23   44 1
    39   24   25 ar
    40   25   26 ar
    41   25   31 ar
    42   26   27 1
    43   26   28 ar
    44   27   45 1
    45   27   46 1
    46   28   29 ar
    47   28   48 1
    48   29   30 ar
    49   29   47 1
    50   30   31 ar
@<TRIPOS>SUBSTRUCTURE
     1 ACP         1 GROUP 0 A     ****
@<TRIPOS>MOLECULE
[[5-(6-amino-1,8-dihydropurine-6,8-diylium-7-id-9-yl)-3,4-dihydroxy-tetrahydrofuran-2-yl]methoxy-oxido-phosphoryl]oxy-(phosphonomethyl)phosphinate
   48    50     1     0     0
SMALL
USER_CHARGES

@<TRIPOS>ATOM
      1 PG         -5.5095   -3.8714    3.1174 P.3       1 ACP         1.6558
      2 O1G        -5.7900   -3.6061    4.5660 O.2       1 ACP        -0.9020
      3 O2G        -4.1227   -3.2615    2.5561 O.3       1 ACP        -0.8036
      4 O3G        -6.6167   -3.3106    2.0834 O.3       1 ACP        -0.8036
      5 PB         -4.1500   -6.7658    3.4393 P.3       1 ACP         1.4945
      6 O1B        -4.3715   -8.1316    2.8318 O.co2     1 ACP        -0.8481
      7 O2B        -4.1684   -6.5339    4.9325 O.co2     1 ACP        -0.8481
      8 C3B        -5.3955   -5.6231    2.6886 C.3       1 ACP        -0.6636
      9 PA         -1.2319   -6.3265    3.1261 P.3       1 ACP         1.6023
     10 O1A        -0.8660   -7.7443    2.7434 O.co2     1 ACP        -0.8673
     11 O2A        -0.9557   -5.8090    4.5210 O.co2     1 ACP        -0.8673
     12 O3A        -2.8134   -6.0919    2.7923 O.3       1 ACP        -0.8150
     13 O5'        -0.5696   -5.2856    2.0523 O.3       1 ACP        -0.5522
     14 C5'        -0.7840   -3.8935    2.2172 C.3       1 ACP         0.2181
     15 C4'        -0.0724   -3.1466    1.1027 C.3       1 ACP         0.0915
     16 O4'        -0.8674   -3.1929   -0.0945 O.3       1 ACP        -0.3675
     17 C3'         0.1338   -1.6715    1.4027 C.3       1 ACP         0.0748
     18 O3'         1.2893   -1.4445    2.1808 O.3       1 ACP        -0.5646
     19 C2'         0.2158   -1.0724    0.0128 C.3       1 ACP         0.0804
     20 O2'         1.5141   -1.2448   -0.5513 O.3       1 ACP        -0.5882
     21 C1'        -0.7897   -1.9176   -0.7583 C.3       1 ACP         0.3809
     22 N9         -2.1040   -1.3333   -0.7704 N.pl3     1 ACP        -0.4412
     23 C8         -3.2124   -1.5345    0.2719 C.ar      1 ACP         0.1936
     24 N7         -4.2964   -0.8234   -0.0828 N.2       1 ACP        -0.2746
     25 C5         -3.8754   -0.2386   -1.2478 C.ar      1 ACP        -0.1386
     26 C6         -4.7432    0.6719   -2.0470 C.ar      1 ACP         0.4778
     27 N6         -5.9725    0.9415   -1.6366 N.pl3     1 ACP        -0.8290
     28 N1         -4.1703    1.1517   -3.1536 N.pl3     1 ACP        -0.6985
     29 C2         -2.8174    0.7994   -3.5215 C.ar      1 ACP         0.6179
     30 N3         -2.0475    0.0097   -2.8393 N.ar      1 ACP        -0.5105
     31 C4         -2.6278   -0.4836   -1.7071 C.ar      1 ACP         0.2753
     32 HOG2       -3.9793   -2.2921    2.5961 H         1 ACP         0.4487
     33 HOG3       -6.8018   -2.3476    2.0614 H         1 ACP         0.4487
     34 H3B1       -6.3717   -6.0777    2.8914 H         1 ACP         0.1088
     35 H3B2       -5.2367   -5.6775    1.6055 H         1 ACP         0.1088
     36 H5'1       -1.8599   -3.6947    2.1849 H         1 ACP         0.0327
     37 H5'2       -0.3934   -3.5882    3.1930 H         1 ACP         0.0327
     38 H4'         0.8883   -3.6447    0.8783 H         1 ACP         0.1275
     39 H3'        -0.7368   -1.2359    1.9871 H         1 ACP         0.0637
     40 HO3'        1.3407   -0.4871    2.3218 H         1 ACP         0.4127
     41 H2'        -0.0343   -0.0280    0.0196 H         1 ACP         0.0692
     42 HO2'        1.4978   -0.8409   -1.4361 H         1 ACP         0.4431
     43 H1'        -0.5175   -2.1046   -1.7826 H         1 ACP         0.1199
     44 H8         -3.2310   -2.1319    1.1889 H         1 ACP         0.2941
     45 HN61       -6.3230    0.5316   -0.7829 H         1 ACP         0.4754
     46 HN62       -6.5628    1.5584   -2.1760 H         1 ACP         0.4754
     47 H2         -2.4822    1.2710   -4.4579 H         1 ACP         0.0886
     48 H48        -4.7200    1.7780   -3.7346 H         1 ACP         0.4707
@<TRIPOS>BOND
     1    1    2 2
     2    1    3 1
     3    1    4 1
     4    1    8 1
     5    3   32 1
     6    4   33 1
     7    5    6 2
     8    5    7 1
     9    5    8 1
    10    5   12 1
    11    8   34 1
    12    8   35 1
    13    9   10 2
    14    9   11 1
    15    9   12 1
    16    9   13 1
    17   13   14 1
    18   14   15 1
    19   14   36 1
    20   14   37 1
    21   15   16 1
    22   15   17 1
    23   15   38 1
    24   16   21 1
    25   17   18 1
    26   17   19 1
    27   17   39 1
    28   18   40 1
    29   19   20 1
    30   19   21 1
    31   19   41 1
    32   20   42 1
    33   21   22 1
    34   21   43 1
    35   22   23 ar
    36   22   31 ar
    37   23   24 ar
    38   23   44 1
    39   24   25 ar
    40   25   26 ar
    41   25   31 ar
    42   26   27 1
    43   26   28 ar
    44   27   45 1
    45   27   46 1
    46   28   29 ar
    47   28   48 1
    48   29   30 ar
    49   29   47 1
    50   30   31 ar
@<TRIPOS>SUBSTRUCTURE
     1 ACP         1 GROUP 0 A     ****
