@<TRIPOS>MOLECULE
[[5-(6-amino-7,8-dihydropurin-8-ylium-9-yl)-3,4-dihydroxy-tetrahydrofuran-2-yl]methoxy-oxido-phosphoryl]oxy-[[hydroxy(oxido)phosphoryl]methyl]phosphinate
   47    49     1     0     0
SMALL
USER_CHARGES

@<TRIPOS>ATOM
      1 PG         -2.1664    1.3697   -3.5342 P.3       1 ACP         1.3755
      2 O1G        -3.1240    2.4397   -3.0641 O.co2     1 ACP        -0.8970
      3 O2G        -1.2414    0.6453   -2.5835 O.co2     1 ACP        -0.8970
      4 O3G        -2.9741    0.2788   -4.4381 O.3       1 ACP        -0.7959
      5 PB          0.2023    1.1636   -5.7528 P.3       1 ACP         1.5194
      6 O1B         0.8230    2.1002   -6.7629 O.co2     1 ACP        -0.8958
      7 O2B        -0.3827   -0.1727   -6.1482 O.co2     1 ACP        -0.8958
      8 C3B        -1.1214    2.1026   -4.8695 C.3       1 ACP        -0.5612
      9 PA          2.7389    0.3751   -4.4298 P.3       1 ACP         1.6019
     10 O1A         3.6524    1.3383   -5.1562 O.co2     1 ACP        -0.9040
     11 O2A         2.7044   -1.0896   -4.8094 O.co2     1 ACP        -0.9040
     12 O3A         1.2162    0.9618   -4.4921 O.3       1 ACP        -0.8156
     13 O5'         3.0198    0.5138   -2.8245 O.3       1 ACP        -0.5465
     14 C5'         2.2816   -0.2918   -1.9206 C.3       1 ACP         0.2108
     15 C4'         2.7248    0.0226   -0.4980 C.3       1 ACP         0.0552
     16 O4'         2.4697    1.4219   -0.2462 O.3       1 ACP        -0.3428
     17 C3'         1.9404   -0.7419    0.5596 C.3       1 ACP         0.0750
     18 O3'         2.7418   -0.8086    1.7389 O.3       1 ACP        -0.6066
     19 C2'         0.7477    0.1630    0.7858 C.3       1 ACP         0.1185
     20 O2'         0.1373   -0.0577    2.0407 O.3       1 ACP        -0.5858
     21 C1'         1.3733    1.5427    0.6747 C.3       1 ACP         0.3826
     22 N9          0.4520    2.5240    0.1767 N.pl3     1 ACP        -0.5729
     23 C8          0.1928    2.8484   -1.0815 C.ar      1 ACP         0.3288
     24 N7         -0.7248    3.8048   -1.2110 N.pl3     1 ACP        -0.5338
     25 C5         -1.0765    4.1129    0.0571 C.ar      1 ACP        -0.2581
     26 C6         -1.9614    5.0063    0.5851 C.ar      1 ACP         0.7413
     27 N6         -2.7145    5.8254   -0.2810 N.pl3     1 ACP        -0.9512
     28 N1         -2.1199    5.1113    1.9228 N.ar      1 ACP        -0.7699
     29 C2         -1.3522    4.2822    2.6839 C.ar      1 ACP         0.6898
     30 N3         -0.4501    3.3660    2.2638 N.ar      1 ACP        -0.6800
     31 C4         -0.3487    3.3198    0.9322 C.ar      1 ACP         0.6129
     32 HOG3       -3.7167   -0.2122   -4.0261 H         1 ACP         0.4199
     33 H3B1       -0.6377    2.9812   -4.4282 H         1 ACP         0.0672
     34 H3B2       -1.8087    2.4615   -5.6436 H         1 ACP         0.0672
     35 H5'1        1.2153   -0.0781   -2.0454 H         1 ACP         0.0277
     36 H5'2        2.4645   -1.3454   -2.1547 H         1 ACP         0.0277
     37 H4'         3.8050   -0.1388   -0.4008 H         1 ACP         0.1249
     38 H3'         1.6784   -1.7629    0.2714 H         1 ACP         0.0564
     39 HO3'        2.2232   -1.2979    2.3953 H         1 ACP         0.4511
     40 H2'        -0.0011    0.0027    0.0003 H         1 ACP         0.0716
     41 HO2'       -0.6141    0.5574    2.1082 H         1 ACP         0.4454
     42 H1'         1.7826    1.9024    1.6451 H         1 ACP         0.1310
     43 H8          0.6728    2.3873   -1.9272 H         1 ACP         0.3565
     44 HN61       -3.3968    6.4465    0.1048 H         1 ACP         0.4414
     45 HN62       -2.6221    5.7051   -1.2696 H         1 ACP         0.4414
     46 H2         -1.4818    4.3694    3.7565 H         1 ACP         0.0676
     47 H47        -1.0701    4.2005   -2.0743 H         1 ACP         0.5052
@<TRIPOS>BOND
     1    1    2 2
     2    1    3 1
     3    1    4 1
     4    1    8 1
     5    4   32 1
     6    5    6 2
     7    5    7 1
     8    5    8 1
     9    5   12 1
    10    8   33 1
    11    8   34 1
    12    9   10 2
    13    9   11 1
    14    9   12 1
    15    9   13 1
    16   13   14 1
    17   14   15 1
    18   14   35 1
    19   14   36 1
    20   15   16 1
    21   15   17 1
    22   15   37 1
    23   16   21 1
    24   17   18 1
    25   17   19 1
    26   17   38 1
    27   18   39 1
    28   19   20 1
    29   19   21 1
    30   19   40 1
    31   20   41 1
    32   21   22 1
    33   21   42 1
    34   22   23 ar
    35   22   31 ar
    36   23   24 ar
    37   23   43 1
    38   24   25 ar
    39   24   47 1
    40   25   26 ar
    41   25   31 ar
    42   26   27 1
    43   26   28 ar
    44   27   44 1
    45   27   45 1
    46   28   29 ar
    47   29   30 ar
    48   29   46 1
    49   30   31 ar
@<TRIPOS>SUBSTRUCTURE
     1 ACP         1 GROUP 0 A     ****
@<TRIPOS>MOLECULE
[[5-(6-amino-7,8-dihydropurin-8-ylium-9-yl)-3,4-dihydroxy-tetrahydrofuran-2-yl]methoxy-oxido-phosphoryl]oxy-[[hydroxy(oxido)phosphoryl]methyl]phosphinate
   47    49     1     0     0
SMALL
USER_CHARGES

@<TRIPOS>ATOM
      1 PG          0.7491    4.1646   -4.4933 P.3       1 ACP         1.3755
      2 O1G         1.4947    3.6465   -3.2856 O.co2     1 ACP        -0.8970
      3 O2G        -0.3221    5.2250   -4.3823 O.co2     1 ACP        -0.8970
      4 O3G         1.8187    4.5962   -5.6464 O.3       1 ACP        -0.7959
      5 PB          0.9951    1.3104   -6.0322 P.3       1 ACP         1.5194
      6 O1B         1.9390    1.8846   -7.0629 O.co2     1 ACP        -0.8958
      7 O2B         0.0321    0.1920   -6.3581 O.co2     1 ACP        -0.8958
      8 C3B         0.0001    2.7116   -5.3534 C.3       1 ACP        -0.5612
      9 PA          3.0653   -0.0868   -4.4294 P.3       1 ACP         1.6019
     10 O1A         4.2789    0.4515   -5.1554 O.co2     1 ACP        -0.9040
     11 O2A         2.5799   -1.4982   -4.6803 O.co2     1 ACP        -0.9040
     12 O3A         1.8195    0.9401   -4.6753 O.3       1 ACP        -0.8156
     13 O5'         3.2883    0.1336   -2.8242 O.3       1 ACP        -0.5465
     14 C5'         2.2816   -0.2918   -1.9206 C.3       1 ACP         0.2108
     15 C4'         2.7248    0.0226   -0.4980 C.3       1 ACP         0.0552
     16 O4'         2.4697    1.4219   -0.2462 O.3       1 ACP        -0.3428
     17 C3'         1.9404   -0.7419    0.5596 C.3       1 ACP         0.0750
     18 O3'         2.7418   -0.8086    1.7389 O.3       1 ACP        -0.6066
     19 C2'         0.7477    0.1630    0.7858 C.3       1 ACP         0.1185
     20 O2'         0.1373   -0.0577    2.0407 O.3       1 ACP        -0.5858
     21 C1'         1.3733    1.5427    0.6747 C.3       1 ACP         0.3826
     22 N9          0.4520    2.5240    0.1767 N.pl3     1 ACP        -0.5729
     23 C8         -0.2172    2.5216   -0.9668 C.ar      1 ACP         0.3288
     24 N7         -1.0011    3.5855   -1.1321 N.pl3     1 ACP        -0.5338
     25 C5         -0.8184    4.3200   -0.0123 C.ar      1 ACP        -0.2581
     26 C6         -1.3349    5.5079    0.4144 C.ar      1 ACP         0.7413
     27 N6         -2.2567    6.1930   -0.4036 N.pl3     1 ACP        -0.9512
     28 N1         -0.9716    6.0291    1.6069 N.ar      1 ACP        -0.7699
     29 C2         -0.0765    5.3009    2.3312 C.ar      1 ACP         0.6898
     30 N3          0.4933    4.1191    2.0023 N.ar      1 ACP        -0.6800
     31 C4          0.0865    3.6675    0.8123 C.ar      1 ACP         0.6129
     32 HOG3        2.4751    5.2946   -5.4377 H         1 ACP         0.4199
     33 H3B1       -0.5754    3.1191   -6.1920 H         1 ACP         0.0672
     34 H3B2       -0.7141    2.2663   -4.6519 H         1 ACP         0.0672
     35 H5'1        1.3500    0.2325   -2.1560 H         1 ACP         0.0277
     36 H5'2        2.1267   -1.3683   -2.0444 H         1 ACP         0.0277
     37 H4'         3.8050   -0.1388   -0.4008 H         1 ACP         0.1249
     38 H3'         1.6784   -1.7629    0.2714 H         1 ACP         0.0564
     39 HO3'        2.2232   -1.2979    2.3953 H         1 ACP         0.4511
     40 H2'        -0.0011    0.0027    0.0003 H         1 ACP         0.0716
     41 HO2'       -0.6141    0.5574    2.1082 H         1 ACP         0.4454
     42 H1'         1.7826    1.9024    1.6451 H         1 ACP         0.1310
     43 H8         -0.1423    1.7373   -1.6999 H         1 ACP         0.3565
     44 HN61       -2.4811    5.8206   -1.3042 H         1 ACP         0.4414
     45 HN62       -2.5986    7.0863   -0.1113 H         1 ACP         0.4414
     46 H2          0.2128    5.7222    3.2871 H         1 ACP         0.0676
     47 H47        -1.5947    3.7835   -1.9255 H         1 ACP         0.5052
@<TRIPOS>BOND
     1    1    2 2
     2    1    3 1
     3    1    4 1
     4    1    8 1
     5    4   32 1
     6    5    6 2
     7    5    7 1
     8    5    8 1
     9    5   12 1
    10    8   33 1
    11    8   34 1
    12    9   10 2
    13    9   11 1
    14    9   12 1
    15    9   13 1
    16   13   14 1
    17   14   15 1
    18   14   35 1
    19   14   36 1
    20   15   16 1
    21   15   17 1
    22   15   37 1
    23   16   21 1
    24   17   18 1
    25   17   19 1
    26   17   38 1
    27   18   39 1
    28   19   20 1
    29   19   21 1
    30   19   40 1
    31   20   41 1
    32   21   22 1
    33   21   42 1
    34   22   23 ar
    35   22   31 ar
    36   23   24 ar
    37   23   43 1
    38   24   25 ar
    39   24   47 1
    40   25   26 ar
    41   25   31 ar
    42   26   27 1
    43   26   28 ar
    44   27   44 1
    45   27   45 1
    46   28   29 ar
    47   29   30 ar
    48   29   46 1
    49   30   31 ar
@<TRIPOS>SUBSTRUCTURE
     1 ACP         1 GROUP 0 A     ****
@<TRIPOS>MOLECULE
[[5-(6-amino-7,8-dihydropurin-8-ylium-9-yl)-3,4-dihydroxy-tetrahydrofuran-2-yl]methoxy-oxido-phosphoryl]oxy-[[hydroxy(oxido)phosphoryl]methyl]phosphinate
   47    49     1     0     0
SMALL
USER_CHARGES

@<TRIPOS>ATOM
      1 PG         -1.2226   -4.2640    0.4432 P.3       1 ACP         1.3755
      2 O1G        -2.0422   -3.9817    1.6806 O.co2     1 ACP        -0.8970
      3 O2G         0.2785   -4.0898    0.4165 O.co2     1 ACP        -0.8970
      4 O3G        -1.6052   -5.7402   -0.1351 O.3       1 ACP        -0.7959
      5 PB         -1.2397   -3.2626   -2.6507 P.3       1 ACP         1.5194
      6 O1B        -2.0742   -2.3102   -3.4750 O.co2     1 ACP        -0.8958
      7 O2B        -1.0448   -4.7086   -3.0447 O.co2     1 ACP        -0.8958
      8 C3B        -1.9204   -3.2483   -0.9330 C.3       1 ACP        -0.5612
      9 PA          1.5537   -2.4539   -3.2418 P.3       1 ACP         1.6019
     10 O1A         1.2540   -1.5265   -4.3993 O.co2     1 ACP        -0.9040
     11 O2A         2.1054   -3.8415   -3.4886 O.co2     1 ACP        -0.9040
     12 O3A         0.2083   -2.5875   -2.3259 O.3       1 ACP        -0.8156
     13 O5'         2.5237   -1.6631   -2.1889 O.3       1 ACP        -0.5465
     14 C5'         2.2816   -0.2918   -1.9206 C.3       1 ACP         0.2108
     15 C4'         2.7248    0.0226   -0.4980 C.3       1 ACP         0.0552
     16 O4'         2.4697    1.4219   -0.2462 O.3       1 ACP        -0.3428
     17 C3'         1.9404   -0.7419    0.5596 C.3       1 ACP         0.0750
     18 O3'         2.7418   -0.8086    1.7389 O.3       1 ACP        -0.6066
     19 C2'         0.7477    0.1630    0.7858 C.3       1 ACP         0.1185
     20 O2'         0.1373   -0.0577    2.0407 O.3       1 ACP        -0.5858
     21 C1'         1.3733    1.5427    0.6747 C.3       1 ACP         0.3826
     22 N9          0.4520    2.5240    0.1767 N.pl3     1 ACP        -0.5729
     23 C8          0.1928    2.8484   -1.0815 C.ar      1 ACP         0.3288
     24 N7         -0.7248    3.8048   -1.2110 N.pl3     1 ACP        -0.5338
     25 C5         -1.0765    4.1129    0.0571 C.ar      1 ACP        -0.2581
     26 C6         -1.9614    5.0063    0.5851 C.ar      1 ACP         0.7413
     27 N6         -2.7145    5.8254   -0.2810 N.pl3     1 ACP        -0.9512
     28 N1         -2.1199    5.1113    1.9228 N.ar      1 ACP        -0.7699
     29 C2         -1.3522    4.2822    2.6839 C.ar      1 ACP         0.6898
     30 N3         -0.4501    3.3660    2.2638 N.ar      1 ACP        -0.6800
     31 C4         -0.3487    3.3198    0.9322 C.ar      1 ACP         0.6129
     32 HOG3       -1.4641   -6.5200    0.4430 H         1 ACP         0.4199
     33 H3B1       -1.8816   -2.2079   -0.5918 H         1 ACP         0.0672
     34 H3B2       -2.9769   -3.5247   -1.0216 H         1 ACP         0.0672
     35 H5'1        2.8429    0.3140   -2.6391 H         1 ACP         0.0277
     36 H5'2        1.2125   -0.0906   -2.0420 H         1 ACP         0.0277
     37 H4'         3.8050   -0.1388   -0.4008 H         1 ACP         0.1249
     38 H3'         1.6784   -1.7629    0.2714 H         1 ACP         0.0564
     39 HO3'        2.2232   -1.2979    2.3953 H         1 ACP         0.4511
     40 H2'        -0.0011    0.0027    0.0003 H         1 ACP         0.0716
     41 HO2'       -0.1563   -0.9855    2.0596 H         1 ACP         0.4454
     42 H1'         1.7826    1.9024    1.6451 H         1 ACP         0.1310
     43 H8          0.6728    2.3873   -1.9272 H         1 ACP         0.3565
     44 HN61       -2.5537    5.7714   -1.2667 H         1 ACP         0.4414
     45 HN62       -3.3283    6.5126    0.1080 H         1 ACP         0.4414
     46 H2         -1.4818    4.3694    3.7565 H         1 ACP         0.0676
     47 H47        -1.0701    4.2005   -2.0743 H         1 ACP         0.5052
@<TRIPOS>BOND
     1    1    2 2
     2    1    3 1
     3    1    4 1
     4    1    8 1
     5    4   32 1
     6    5    6 2
     7    5    7 1
     8    5    8 1
     9    5   12 1
    10    8   33 1
    11    8   34 1
    12    9   10 2
    13    9   11 1
    14    9   12 1
    15    9   13 1
    16   13   14 1
    17   14   15 1
    18   14   35 1
    19   14   36 1
    20   15   16 1
    21   15   17 1
    22   15   37 1
    23   16   21 1
    24   17   18 1
    25   17   19 1
    26   17   38 1
    27   18   39 1
    28   19   20 1
    29   19   21 1
    30   19   40 1
    31   20   41 1
    32   21   22 1
    33   21   42 1
    34   22   23 ar
    35   22   31 ar
    36   23   24 ar
    37   23   43 1
    38   24   25 ar
    39   24   47 1
    40   25   26 ar
    41   25   31 ar
    42   26   27 1
    43   26   28 ar
    44   27   44 1
    45   27   45 1
    46   28   29 ar
    47   29   30 ar
    48   29   46 1
    49   30   31 ar
@<TRIPOS>SUBSTRUCTURE
     1 ACP         1 GROUP 0 A     ****
@<TRIPOS>MOLECULE
[[5-(6-amino-7,8-dihydropurin-8-ylium-9-yl)-3,4-dihydroxy-tetrahydrofuran-2-yl]methoxy-oxido-phosphoryl]oxy-[[hydroxy(oxido)phosphoryl]methyl]phosphinate
   47    49     1     0     0
SMALL
USER_CHARGES

@<TRIPOS>ATOM
      1 PG          3.8223   -4.5880   -4.6489 P.3       1 ACP         1.3755
      2 O1G         3.9653   -5.7610   -5.5904 O.co2     1 ACP        -0.8970
      3 O2G         2.4743   -4.0105   -4.2835 O.co2     1 ACP        -0.8970
      4 O3G         4.6720   -4.8791   -3.2876 O.3       1 ACP        -0.7959
      5 PB          4.9905   -1.5569   -4.4967 P.3       1 ACP         1.5194
      6 O1B         5.9144   -0.7099   -5.3403 O.co2     1 ACP        -0.8958
      7 O2B         5.2443   -1.8053   -3.0276 O.co2     1 ACP        -0.8958
      8 C3B         4.8515   -3.2069   -5.3165 C.3       1 ACP        -0.5612
      9 PA          2.7389    0.3751   -4.4298 P.3       1 ACP         1.6019
     10 O1A         1.2481    0.2227   -4.6393 O.co2     1 ACP        -0.9040
     11 O2A         3.5164    1.4419   -5.1701 O.co2     1 ACP        -0.9040
     12 O3A         3.4492   -1.0690   -4.7073 O.3       1 ACP        -0.8156
     13 O5'         3.0198    0.5138   -2.8245 O.3       1 ACP        -0.5465
     14 C5'         2.2816   -0.2918   -1.9206 C.3       1 ACP         0.2108
     15 C4'         2.7248    0.0226   -0.4980 C.3       1 ACP         0.0552
     16 O4'         2.4697    1.4219   -0.2462 O.3       1 ACP        -0.3428
     17 C3'         1.9404   -0.7419    0.5596 C.3       1 ACP         0.0750
     18 O3'         2.7418   -0.8086    1.7389 O.3       1 ACP        -0.6066
     19 C2'         0.7477    0.1630    0.7858 C.3       1 ACP         0.1185
     20 O2'         0.1373   -0.0577    2.0407 O.3       1 ACP        -0.5858
     21 C1'         1.3733    1.5427    0.6747 C.3       1 ACP         0.3826
     22 N9          0.4520    2.5240    0.1767 N.pl3     1 ACP        -0.5729
     23 C8          0.1928    2.8484   -1.0815 C.ar      1 ACP         0.3288
     24 N7         -0.7248    3.8048   -1.2110 N.pl3     1 ACP        -0.5338
     25 C5         -1.0765    4.1129    0.0571 C.ar      1 ACP        -0.2581
     26 C6         -1.9614    5.0063    0.5851 C.ar      1 ACP         0.7413
     27 N6         -2.7145    5.8254   -0.2810 N.pl3     1 ACP        -0.9512
     28 N1         -2.1199    5.1113    1.9228 N.ar      1 ACP        -0.7699
     29 C2         -1.3522    4.2822    2.6839 C.ar      1 ACP         0.6898
     30 N3         -0.4501    3.3660    2.2638 N.ar      1 ACP        -0.6800
     31 C4         -0.3487    3.3198    0.9322 C.ar      1 ACP         0.6129
     32 HOG3        4.4370   -5.6641   -2.7484 H         1 ACP         0.4199
     33 H3B1        4.4855   -3.0196   -6.3322 H         1 ACP         0.0672
     34 H3B2        5.8738   -3.5915   -5.4026 H         1 ACP         0.0672
     35 H5'1        1.2153   -0.0781   -2.0454 H         1 ACP         0.0277
     36 H5'2        2.4645   -1.3454   -2.1547 H         1 ACP         0.0277
     37 H4'         3.8050   -0.1388   -0.4008 H         1 ACP         0.1249
     38 H3'         1.6784   -1.7629    0.2714 H         1 ACP         0.0564
     39 HO3'        2.2232   -1.2979    2.3953 H         1 ACP         0.4511
     40 H2'        -0.0011    0.0027    0.0003 H         1 ACP         0.0716
     41 HO2'       -0.6141    0.5574    2.1082 H         1 ACP         0.4454
     42 H1'         1.7826    1.9024    1.6451 H         1 ACP         0.1310
     43 H8          0.6728    2.3873   -1.9272 H         1 ACP         0.3565
     44 HN61       -2.5537    5.7714   -1.2667 H         1 ACP         0.4414
     45 HN62       -3.3283    6.5126    0.1080 H         1 ACP         0.4414
     46 H2         -1.4818    4.3694    3.7565 H         1 ACP         0.0676
     47 H47        -1.0701    4.2005   -2.0743 H         1 ACP         0.5052
@<TRIPOS>BOND
     1    1    2 2
     2    1    3 1
     3    1    4 1
     4    1    8 1
     5    4   32 1
     6    5    6 2
     7    5    7 1
     8    5    8 1
     9    5   12 1
    10    8   33 1
    11    8   34 1
    12    9   10 2
    13    9   11 1
    14    9   12 1
    15    9   13 1
    16   13   14 1
    17   14   15 1
    18   14   35 1
    19   14   36 1
    20   15   16 1
    21   15   17 1
    22   15   37 1
    23   16   21 1
    24   17   18 1
    25   17   19 1
    26   17   38 1
    27   18   39 1
    28   19   20 1
    29   19   21 1
    30   19   40 1
    31   20   41 1
    32   21   22 1
    33   21   42 1
    34   22   23 ar
    35   22   31 ar
    36   23   24 ar
    37   23   43 1
    38   24   25 ar
    39   24   47 1
    40   25   26 ar
    41   25   31 ar
    42   26   27 1
    43   26   28 ar
    44   27   44 1
    45   27   45 1
    46   28   29 ar
    47   29   30 ar
    48   29   46 1
    49   30   31 ar
@<TRIPOS>SUBSTRUCTURE
     1 ACP         1 GROUP 0 A     ****
@<TRIPOS>MOLECULE
[[5-(6-amino-7,8-dihydropurin-8-ylium-9-yl)-3,4-dihydroxy-tetrahydrofuran-2-yl]methoxy-oxido-phosphoryl]oxy-[[hydroxy(oxido)phosphoryl]methyl]phosphinate
   47    49     1     0     0
SMALL
USER_CHARGES

@<TRIPOS>ATOM
      1 PG         -2.1664    1.3697   -3.5342 P.3       1 ACP         1.3755
      2 O1G        -3.1240    2.4397   -3.0641 O.co2     1 ACP        -0.8970
      3 O2G        -1.2414    0.6453   -2.5835 O.co2     1 ACP        -0.8970
      4 O3G        -2.9741    0.2788   -4.4381 O.3       1 ACP        -0.7959
      5 PB          0.2023    1.1636   -5.7528 P.3       1 ACP         1.5194
      6 O1B         0.8230    2.1002   -6.7629 O.co2     1 ACP        -0.8958
      7 O2B        -0.3827   -0.1727   -6.1482 O.co2     1 ACP        -0.8958
      8 C3B        -1.1214    2.1026   -4.8695 C.3       1 ACP        -0.5612
      9 PA          2.7389    0.3751   -4.4298 P.3       1 ACP         1.6019
     10 O1A         3.6524    1.3383   -5.1562 O.co2     1 ACP        -0.9040
     11 O2A         2.7044   -1.0896   -4.8094 O.co2     1 ACP        -0.9040
     12 O3A         1.2162    0.9618   -4.4921 O.3       1 ACP        -0.8156
     13 O5'         3.0198    0.5138   -2.8245 O.3       1 ACP        -0.5465
     14 C5'         2.2816   -0.2918   -1.9206 C.3       1 ACP         0.2108
     15 C4'         2.7248    0.0226   -0.4980 C.3       1 ACP         0.0552
     16 O4'         2.4697    1.4219   -0.2462 O.3       1 ACP        -0.3428
     17 C3'         1.9404   -0.7419    0.5596 C.3       1 ACP         0.0750
     18 O3'         2.7418   -0.8086    1.7389 O.3       1 ACP        -0.6066
     19 C2'         0.7477    0.1630    0.7858 C.3       1 ACP         0.1185
     20 O2'         0.1373   -0.0577    2.0407 O.3       1 ACP        -0.5858
     21 C1'         1.3733    1.5427    0.6747 C.3       1 ACP         0.3826
     22 N9          0.4520    2.5240    0.1767 N.pl3     1 ACP        -0.5729
     23 C8         -0.8602    2.5861    0.3496 C.ar      1 ACP         0.3288
     24 N7         -1.4308    3.6326   -0.2443 N.pl3     1 ACP        -0.5338
     25 C5         -0.4080    4.2856   -0.8394 C.ar      1 ACP        -0.2581
     26 C6         -0.3432    5.4196   -1.5943 C.ar      1 ACP         0.7413
     27 N6         -1.5276    6.1333   -1.8702 N.pl3     1 ACP        -0.9512
     28 N1          0.8395    5.8603   -2.0764 N.ar      1 ACP        -0.7699
     29 C2          1.9319    5.1095   -1.7617 C.ar      1 ACP         0.6898
     30 N3          1.9773    3.9761   -1.0249 N.ar      1 ACP        -0.6800
     31 C4          0.7724    3.6031   -0.5836 C.ar      1 ACP         0.6129
     32 HOG3       -3.7167   -0.2122   -4.0261 H         1 ACP         0.4199
     33 H3B1       -0.6377    2.9812   -4.4282 H         1 ACP         0.0672
     34 H3B2       -1.8087    2.4615   -5.6436 H         1 ACP         0.0672
     35 H5'1        1.2153   -0.0781   -2.0454 H         1 ACP         0.0277
     36 H5'2        2.4645   -1.3454   -2.1547 H         1 ACP         0.0277
     37 H4'         3.8050   -0.1388   -0.4008 H         1 ACP         0.1249
     38 H3'         1.6784   -1.7629    0.2714 H         1 ACP         0.0564
     39 HO3'        2.2232   -1.2979    2.3953 H         1 ACP         0.4511
     40 H2'        -0.0011    0.0027    0.0003 H         1 ACP         0.0716
     41 HO2'       -0.1563   -0.9855    2.0596 H         1 ACP         0.4454
     42 H1'         1.7826    1.9024    1.6451 H         1 ACP         0.1310
     43 H8         -1.4217    1.8638    0.9164 H         1 ACP         0.3565
     44 HN61       -2.4023    5.7711   -1.5477 H         1 ACP         0.4414
     45 HN62       -1.4857    6.9379   -2.4627 H         1 ACP         0.4414
     46 H2          2.8789    5.4660   -2.1503 H         1 ACP         0.0676
     47 H47        -2.4129    3.8706   -0.2402 H         1 ACP         0.5052
@<TRIPOS>BOND
     1    1    2 2
     2    1    3 1
     3    1    4 1
     4    1    8 1
     5    4   32 1
     6    5    6 2
     7    5    7 1
     8    5    8 1
     9    5   12 1
    10    8   33 1
    11    8   34 1
    12    9   10 2
    13    9   11 1
    14    9   12 1
    15    9   13 1
    16   13   14 1
    17   14   15 1
    18   14   35 1
    19   14   36 1
    20   15   16 1
    21   15   17 1
    22   15   37 1
    23   16   21 1
    24   17   18 1
    25   17   19 1
    26   17   38 1
    27   18   39 1
    28   19   20 1
    29   19   21 1
    30   19   40 1
    31   20   41 1
    32   21   22 1
    33   21   42 1
    34   22   23 ar
    35   22   31 ar
    36   23   24 ar
    37   23   43 1
    38   24   25 ar
    39   24   47 1
    40   25   26 ar
    41   25   31 ar
    42   26   27 1
    43   26   28 ar
    44   27   44 1
    45   27   45 1
    46   28   29 ar
    47   29   30 ar
    48   29   46 1
    49   30   31 ar
@<TRIPOS>SUBSTRUCTURE
     1 ACP         1 GROUP 0 A     ****
@<TRIPOS>MOLECULE
[[5-(6-amino-7,8-dihydropurin-8-ylium-9-yl)-3,4-dihydroxy-tetrahydrofuran-2-yl]methoxy-oxido-phosphoryl]oxy-[[hydroxy(oxido)phosphoryl]methyl]phosphinate
   47    49     1     0     0
SMALL
USER_CHARGES

@<TRIPOS>ATOM
      1 PG          4.3280    1.5837   -5.6043 P.3       1 ACP         1.3755
      2 O1G         2.8306    1.3831   -5.6289 O.co2     1 ACP        -0.8970
      3 O2G         5.0311    2.5061   -6.5734 O.co2     1 ACP        -0.8970
      4 O3G         4.8028    1.9341   -4.0840 O.3       1 ACP        -0.7959
      5 PB          4.8472   -1.4445   -4.5386 P.3       1 ACP         1.5194
      6 O1B         5.3187   -0.9488   -3.1915 O.co2     1 ACP        -0.8958
      7 O2B         5.3827   -2.7133   -5.1613 O.co2     1 ACP        -0.8958
      8 C3B         5.1171   -0.0797   -5.7546 C.3       1 ACP        -0.5612
      9 PA          2.1362   -2.2698   -3.6575 P.3       1 ACP         1.6019
     10 O1A         2.4953   -3.7397   -3.6734 O.co2     1 ACP        -0.9040
     11 O2A         0.7453   -1.8118   -4.0395 O.co2     1 ACP        -0.9040
     12 O3A         3.2175   -1.4646   -4.5792 O.3       1 ACP        -0.8156
     13 O5'         2.5237   -1.6631   -2.1889 O.3       1 ACP        -0.5465
     14 C5'         2.2816   -0.2918   -1.9206 C.3       1 ACP         0.2108
     15 C4'         2.7248    0.0226   -0.4980 C.3       1 ACP         0.0552
     16 O4'         2.4697    1.4219   -0.2462 O.3       1 ACP        -0.3428
     17 C3'         1.9404   -0.7419    0.5596 C.3       1 ACP         0.0750
     18 O3'         2.7418   -0.8086    1.7389 O.3       1 ACP        -0.6066
     19 C2'         0.7477    0.1630    0.7858 C.3       1 ACP         0.1185
     20 O2'         0.1373   -0.0577    2.0407 O.3       1 ACP        -0.5858
     21 C1'         1.3733    1.5427    0.6747 C.3       1 ACP         0.3826
     22 N9          0.4520    2.5240    0.1767 N.pl3     1 ACP        -0.5729
     23 C8          0.1928    2.8484   -1.0815 C.ar      1 ACP         0.3288
     24 N7         -0.7248    3.8048   -1.2110 N.pl3     1 ACP        -0.5338
     25 C5         -1.0765    4.1129    0.0571 C.ar      1 ACP        -0.2581
     26 C6         -1.9614    5.0063    0.5851 C.ar      1 ACP         0.7413
     27 N6         -2.7145    5.8254   -0.2810 N.pl3     1 ACP        -0.9512
     28 N1         -2.1199    5.1113    1.9228 N.ar      1 ACP        -0.7699
     29 C2         -1.3522    4.2822    2.6839 C.ar      1 ACP         0.6898
     30 N3         -0.4501    3.3660    2.2638 N.ar      1 ACP        -0.6800
     31 C4         -0.3487    3.3198    0.9322 C.ar      1 ACP         0.6129
     32 HOG3        4.4350    2.7342   -3.6517 H         1 ACP         0.4199
     33 H3B1        6.1976    0.0991   -5.7865 H         1 ACP         0.0672
     34 H3B2        4.8223   -0.4791   -6.7313 H         1 ACP         0.0672
     35 H5'1        2.8429    0.3140   -2.6391 H         1 ACP         0.0277
     36 H5'2        1.2125   -0.0906   -2.0420 H         1 ACP         0.0277
     37 H4'         3.8050   -0.1388   -0.4008 H         1 ACP         0.1249
     38 H3'         1.6784   -1.7629    0.2714 H         1 ACP         0.0564
     39 HO3'        2.2232   -1.2979    2.3953 H         1 ACP         0.4511
     40 H2'        -0.0011    0.0027    0.0003 H         1 ACP         0.0716
     41 HO2'       -0.6141    0.5574    2.1082 H         1 ACP         0.4454
     42 H1'         1.7826    1.9024    1.6451 H         1 ACP         0.1310
     43 H8          0.6728    2.3873   -1.9272 H         1 ACP         0.3565
     44 HN61       -2.5537    5.7714   -1.2667 H         1 ACP         0.4414
     45 HN62       -3.3283    6.5126    0.1080 H         1 ACP         0.4414
     46 H2         -1.4818    4.3694    3.7565 H         1 ACP         0.0676
     47 H47        -1.0701    4.2005   -2.0743 H         1 ACP         0.5052
@<TRIPOS>BOND
     1    1    2 2
     2    1    3 1
     3    1    4 1
     4    1    8 1
     5    4   32 1
     6    5    6 2
     7    5    7 1
     8    5    8 1
     9    5   12 1
    10    8   33 1
    11    8   34 1
    12    9   10 2
    13    9   11 1
    14    9   12 1
    15    9   13 1
    16   13   14 1
    17   14   15 1
    18   14   35 1
    19   14   36 1
    20   15   16 1
    21   15   17 1
    22   15   37 1
    23   16   21 1
    24   17   18 1
    25   17   19 1
    26   17   38 1
    27   18   39 1
    28   19   20 1
    29   19   21 1
    30   19   40 1
    31   20   41 1
    32   21   22 1
    33   21   42 1
    34   22   23 ar
    35   22   31 ar
    36   23   24 ar
    37   23   43 1
    38   24   25 ar
    39   24   47 1
    40   25   26 ar
    41   25   31 ar
    42   26   27 1
    43   26   28 ar
    44   27   44 1
    45   27   45 1
    46   28   29 ar
    47   29   30 ar
    48   29   46 1
    49   30   31 ar
@<TRIPOS>SUBSTRUCTURE
     1 ACP         1 GROUP 0 A     ****
@<TRIPOS>MOLECULE
[[5-(6-amino-7,8-dihydropurin-8-ylium-9-yl)-3,4-dihydroxy-tetrahydrofuran-2-yl]methoxy-oxido-phosphoryl]oxy-[[hydroxy(oxido)phosphoryl]methyl]phosphinate
   47    49     1     0     0
SMALL
USER_CHARGES

@<TRIPOS>ATOM
      1 PG         -2.7805   -1.0031   -3.3844 P.3       1 ACP         1.3755
      2 O1G        -4.1041   -1.1040   -4.1060 O.co2     1 ACP        -0.8970
      3 O2G        -1.6749   -0.0880   -3.8580 O.co2     1 ACP        -0.8970
      4 O3G        -3.0476   -0.7500   -1.7955 O.3       1 ACP        -0.7959
      5 PB         -0.4560   -3.0822   -2.4629 P.3       1 ACP         1.5194
      6 O1B        -0.2322   -4.5724   -2.5718 O.co2     1 ACP        -0.8958
      7 O2B        -0.4376   -2.3610   -1.1347 O.co2     1 ACP        -0.8958
      8 C3B        -2.0755   -2.7066   -3.2693 C.3       1 ACP        -0.5612
      9 PA          2.1362   -2.2698   -3.6575 P.3       1 ACP         1.6019
     10 O1A         2.5073   -1.2450   -4.7072 O.co2     1 ACP        -0.9040
     11 O2A         2.6360   -3.6946   -3.7605 O.co2     1 ACP        -0.9040
     12 O3A         0.5093   -2.3009   -3.5192 O.3       1 ACP        -0.8156
     13 O5'         2.5237   -1.6631   -2.1889 O.3       1 ACP        -0.5465
     14 C5'         2.2816   -0.2918   -1.9206 C.3       1 ACP         0.2108
     15 C4'         2.7248    0.0226   -0.4980 C.3       1 ACP         0.0552
     16 O4'         2.4697    1.4219   -0.2462 O.3       1 ACP        -0.3428
     17 C3'         1.9404   -0.7419    0.5596 C.3       1 ACP         0.0750
     18 O3'         2.7418   -0.8086    1.7389 O.3       1 ACP        -0.6066
     19 C2'         0.7477    0.1630    0.7858 C.3       1 ACP         0.1185
     20 O2'         0.1373   -0.0577    2.0407 O.3       1 ACP        -0.5858
     21 C1'         1.3733    1.5427    0.6747 C.3       1 ACP         0.3826
     22 N9          0.4520    2.5240    0.1767 N.pl3     1 ACP        -0.5729
     23 C8          0.1928    2.8484   -1.0815 C.ar      1 ACP         0.3288
     24 N7         -0.7248    3.8048   -1.2110 N.pl3     1 ACP        -0.5338
     25 C5         -1.0765    4.1129    0.0571 C.ar      1 ACP        -0.2581
     26 C6         -1.9614    5.0063    0.5851 C.ar      1 ACP         0.7413
     27 N6         -2.7145    5.8254   -0.2810 N.pl3     1 ACP        -0.9512
     28 N1         -2.1199    5.1113    1.9228 N.ar      1 ACP        -0.7699
     29 C2         -1.3522    4.2822    2.6839 C.ar      1 ACP         0.6898
     30 N3         -0.4501    3.3660    2.2638 N.ar      1 ACP        -0.6800
     31 C4         -0.3487    3.3198    0.9322 C.ar      1 ACP         0.6129
     32 HOG3       -3.5423    0.0532   -1.5265 H         1 ACP         0.4199
     33 H3B1       -2.0031   -3.0750   -4.2986 H         1 ACP         0.0672
     34 H3B2       -2.8223   -3.3204   -2.7536 H         1 ACP         0.0672
     35 H5'1        2.8429    0.3140   -2.6391 H         1 ACP         0.0277
     36 H5'2        1.2125   -0.0906   -2.0420 H         1 ACP         0.0277
     37 H4'         3.8050   -0.1388   -0.4008 H         1 ACP         0.1249
     38 H3'         1.6784   -1.7629    0.2714 H         1 ACP         0.0564
     39 HO3'        2.2232   -1.2979    2.3953 H         1 ACP         0.4511
     40 H2'        -0.0011    0.0027    0.0003 H         1 ACP         0.0716
     41 HO2'       -0.6141    0.5574    2.1082 H         1 ACP         0.4454
     42 H1'         1.7826    1.9024    1.6451 H         1 ACP         0.1310
     43 H8          0.6728    2.3873   -1.9272 H         1 ACP         0.3565
     44 HN61       -2.5537    5.7714   -1.2667 H         1 ACP         0.4414
     45 HN62       -3.3283    6.5126    0.1080 H         1 ACP         0.4414
     46 H2         -1.4818    4.3694    3.7565 H         1 ACP         0.0676
     47 H47        -1.0701    4.2005   -2.0743 H         1 ACP         0.5052
@<TRIPOS>BOND
     1    1    2 2
     2    1    3 1
     3    1    4 1
     4    1    8 1
     5    4   32 1
     6    5    6 2
     7    5    7 1
     8    5    8 1
     9    5   12 1
    10    8   33 1
    11    8   34 1
    12    9   10 2
    13    9   11 1
    14    9   12 1
    15    9   13 1
    16   13   14 1
    17   14   15 1
    18   14   35 1
    19   14   36 1
    20   15   16 1
    21   15   17 1
    22   15   37 1
    23   16   21 1
    24   17   18 1
    25   17   19 1
    26   17   38 1
    27   18   39 1
    28   19   20 1
    29   19   21 1
    30   19   40 1
    31   20   41 1
    32   21   22 1
    33   21   42 1
    34   22   23 ar
    35   22   31 ar
    36   23   24 ar
    37   23   43 1
    38   24   25 ar
    39   24   47 1
    40   25   26 ar
    41   25   31 ar
    42   26   27 1
    43   26   28 ar
    44   27   44 1
    45   27   45 1
    46   28   29 ar
    47   29   30 ar
    48   29   46 1
    49   30   31 ar
@<TRIPOS>SUBSTRUCTURE
     1 ACP         1 GROUP 0 A     ****
@<TRIPOS>MOLECULE
[[5-(6-amino-7,8-dihydropurin-8-ylium-9-yl)-3,4-dihydroxy-tetrahydrofuran-2-yl]methoxy-oxido-phosphoryl]oxy-[[hydroxy(oxido)phosphoryl]methyl]phosphinate
   47    49     1     0     0
SMALL
USER_CHARGES

@<TRIPOS>ATOM
      1 PG          5.9547   -3.5623   -4.5288 P.3       1 ACP         1.3755
      2 O1G         6.1565   -4.9799   -4.0467 O.co2     1 ACP        -0.8970
      3 O2G         6.0675   -2.3744   -3.6012 O.co2     1 ACP        -0.8970
      4 O3G         6.8734   -3.3038   -5.8513 O.3       1 ACP        -0.7959
      5 PB          3.6071   -1.9329   -6.0810 P.3       1 ACP         1.5194
      6 O1B         2.2415   -2.2678   -6.6338 O.co2     1 ACP        -0.8958
      7 O2B         4.6943   -1.3247   -6.9368 O.co2     1 ACP        -0.8958
      8 C3B         4.2949   -3.4771   -5.3350 C.3       1 ACP        -0.5612
      9 PA          2.7389    0.3751   -4.4298 P.3       1 ACP         1.6019
     10 O1A         1.2481    0.2227   -4.6393 O.co2     1 ACP        -0.9040
     11 O2A         3.5164    1.4419   -5.1701 O.co2     1 ACP        -0.9040
     12 O3A         3.4492   -1.0690   -4.7073 O.3       1 ACP        -0.8156
     13 O5'         3.0198    0.5138   -2.8245 O.3       1 ACP        -0.5465
     14 C5'         2.2816   -0.2918   -1.9206 C.3       1 ACP         0.2108
     15 C4'         2.7248    0.0226   -0.4980 C.3       1 ACP         0.0552
     16 O4'         2.4697    1.4219   -0.2462 O.3       1 ACP        -0.3428
     17 C3'         1.9404   -0.7419    0.5596 C.3       1 ACP         0.0750
     18 O3'         2.7418   -0.8086    1.7389 O.3       1 ACP        -0.6066
     19 C2'         0.7477    0.1630    0.7858 C.3       1 ACP         0.1185
     20 O2'         0.1373   -0.0577    2.0407 O.3       1 ACP        -0.5858
     21 C1'         1.3733    1.5427    0.6747 C.3       1 ACP         0.3826
     22 N9          0.4520    2.5240    0.1767 N.pl3     1 ACP        -0.5729
     23 C8          0.1928    2.8484   -1.0815 C.ar      1 ACP         0.3288
     24 N7         -0.7248    3.8048   -1.2110 N.pl3     1 ACP        -0.5338
     25 C5         -1.0765    4.1129    0.0571 C.ar      1 ACP        -0.2581
     26 C6         -1.9614    5.0063    0.5851 C.ar      1 ACP         0.7413
     27 N6         -2.7145    5.8254   -0.2810 N.pl3     1 ACP        -0.9512
     28 N1         -2.1199    5.1113    1.9228 N.ar      1 ACP        -0.7699
     29 C2         -1.3522    4.2822    2.6839 C.ar      1 ACP         0.6898
     30 N3         -0.4501    3.3660    2.2638 N.ar      1 ACP        -0.6800
     31 C4         -0.3487    3.3198    0.9322 C.ar      1 ACP         0.6129
     32 HOG3        7.8458   -3.4064   -5.7728 H         1 ACP         0.4199
     33 H3B1        3.5732   -3.8052   -4.5787 H         1 ACP         0.0672
     34 H3B2        4.2959   -4.2271   -6.1338 H         1 ACP         0.0672
     35 H5'1        1.2153   -0.0781   -2.0454 H         1 ACP         0.0277
     36 H5'2        2.4645   -1.3454   -2.1547 H         1 ACP         0.0277
     37 H4'         3.8050   -0.1388   -0.4008 H         1 ACP         0.1249
     38 H3'         1.6784   -1.7629    0.2714 H         1 ACP         0.0564
     39 HO3'        2.2232   -1.2979    2.3953 H         1 ACP         0.4511
     40 H2'        -0.0011    0.0027    0.0003 H         1 ACP         0.0716
     41 HO2'       -0.6141    0.5574    2.1082 H         1 ACP         0.4454
     42 H1'         1.7826    1.9024    1.6451 H         1 ACP         0.1310
     43 H8          0.6728    2.3873   -1.9272 H         1 ACP         0.3565
     44 HN61       -2.5537    5.7714   -1.2667 H         1 ACP         0.4414
     45 HN62       -3.3283    6.5126    0.1080 H         1 ACP         0.4414
     46 H2         -1.4818    4.3694    3.7565 H         1 ACP         0.0676
     47 H47        -1.0701    4.2005   -2.0743 H         1 ACP         0.5052
@<TRIPOS>BOND
     1    1    2 2
     2    1    3 1
     3    1    4 1
     4    1    8 1
     5    4   32 1
     6    5    6 2
     7    5    7 1
     8    5    8 1
     9    5   12 1
    10    8   33 1
    11    8   34 1
    12    9   10 2
    13    9   11 1
    14    9   12 1
    15    9   13 1
    16   13   14 1
    17   14   15 1
    18   14   35 1
    19   14   36 1
    20   15   16 1
    21   15   17 1
    22   15   37 1
    23   16   21 1
    24   17   18 1
    25   17   19 1
    26   17   38 1
    27   18   39 1
    28   19   20 1
    29   19   21 1
    30   19   40 1
    31   20   41 1
    32   21   22 1
    33   21   42 1
    34   22   23 ar
    35   22   31 ar
    36   23   24 ar
    37   23   43 1
    38   24   25 ar
    39   24   47 1
    40   25   26 ar
    41   25   31 ar
    42   26   27 1
    43   26   28 ar
    44   27   44 1
    45   27   45 1
    46   28   29 ar
    47   29   30 ar
    48   29   46 1
    49   30   31 ar
@<TRIPOS>SUBSTRUCTURE
     1 ACP         1 GROUP 0 A     ****
@<TRIPOS>MOLECULE
[[5-(6-amino-7,8-dihydropurin-8-ylium-9-yl)-3,4-dihydroxy-tetrahydrofuran-2-yl]methoxy-oxido-phosphoryl]oxy-[[hydroxy(oxido)phosphoryl]methyl]phosphinate
   47    49     1     0     0
SMALL
USER_CHARGES

@<TRIPOS>ATOM
      1 PG          5.1701   -4.0155   -2.2378 P.3       1 ACP         1.3755
      2 O1G         4.2065   -4.9900   -2.8740 O.co2     1 ACP        -0.8970
      3 O2G         4.7094   -2.9353   -1.2865 O.co2     1 ACP        -0.8970
      4 O3G         6.4061   -4.8382   -1.5631 O.3       1 ACP        -0.7959
      5 PB          5.3023   -2.1900   -4.9258 P.3       1 ACP         1.5194
      6 O1B         4.3452   -3.1009   -5.6584 O.co2     1 ACP        -0.8958
      7 O2B         6.3947   -1.4286   -5.6409 O.co2     1 ACP        -0.8958
      8 C3B         6.1089   -3.1897   -3.5975 C.3       1 ACP        -0.5612
      9 PA          3.3324   -0.0529   -4.3266 P.3       1 ACP         1.6019
     10 O1A         2.0985   -0.7700   -4.8296 O.co2     1 ACP        -0.9040
     11 O2A         3.9793    1.0390   -5.1511 O.co2     1 ACP        -0.9040
     12 O3A         4.4675   -1.1702   -3.9660 O.3       1 ACP        -0.8156
     13 O5'         3.0198    0.5138   -2.8245 O.3       1 ACP        -0.5465
     14 C5'         2.2816   -0.2918   -1.9206 C.3       1 ACP         0.2108
     15 C4'         2.7248    0.0226   -0.4980 C.3       1 ACP         0.0552
     16 O4'         2.4697    1.4219   -0.2462 O.3       1 ACP        -0.3428
     17 C3'         1.9404   -0.7419    0.5596 C.3       1 ACP         0.0750
     18 O3'         2.7418   -0.8086    1.7389 O.3       1 ACP        -0.6066
     19 C2'         0.7477    0.1630    0.7858 C.3       1 ACP         0.1185
     20 O2'         0.1373   -0.0577    2.0407 O.3       1 ACP        -0.5858
     21 C1'         1.3733    1.5427    0.6747 C.3       1 ACP         0.3826
     22 N9          0.4520    2.5240    0.1767 N.pl3     1 ACP        -0.5729
     23 C8          0.1928    2.8484   -1.0815 C.ar      1 ACP         0.3288
     24 N7         -0.7248    3.8048   -1.2110 N.pl3     1 ACP        -0.5338
     25 C5         -1.0765    4.1129    0.0571 C.ar      1 ACP        -0.2581
     26 C6         -1.9614    5.0063    0.5851 C.ar      1 ACP         0.7413
     27 N6         -2.7145    5.8254   -0.2810 N.pl3     1 ACP        -0.9512
     28 N1         -2.1199    5.1113    1.9228 N.ar      1 ACP        -0.7699
     29 C2         -1.3522    4.2822    2.6839 C.ar      1 ACP         0.6898
     30 N3         -0.4501    3.3660    2.2638 N.ar      1 ACP        -0.6800
     31 C4         -0.3487    3.3198    0.9322 C.ar      1 ACP         0.6129
     32 HOG3        6.2048   -5.4893   -0.8575 H         1 ACP         0.4199
     33 H3B1        6.6709   -3.9828   -4.1032 H         1 ACP         0.0672
     34 H3B2        6.8376   -2.5271   -3.1174 H         1 ACP         0.0672
     35 H5'1        1.2153   -0.0781   -2.0454 H         1 ACP         0.0277
     36 H5'2        2.4645   -1.3454   -2.1547 H         1 ACP         0.0277
     37 H4'         3.8050   -0.1388   -0.4008 H         1 ACP         0.1249
     38 H3'         1.6784   -1.7629    0.2714 H         1 ACP         0.0564
     39 HO3'        2.2232   -1.2979    2.3953 H         1 ACP         0.4511
     40 H2'        -0.0011    0.0027    0.0003 H         1 ACP         0.0716
     41 HO2'       -0.6141    0.5574    2.1082 H         1 ACP         0.4454
     42 H1'         1.7826    1.9024    1.6451 H         1 ACP         0.1310
     43 H8          0.6728    2.3873   -1.9272 H         1 ACP         0.3565
     44 HN61       -2.5537    5.7714   -1.2667 H         1 ACP         0.4414
     45 HN62       -3.3283    6.5126    0.1080 H         1 ACP         0.4414
     46 H2         -1.4818    4.3694    3.7565 H         1 ACP         0.0676
     47 H47        -1.0701    4.2005   -2.0743 H         1 ACP         0.5052
@<TRIPOS>BOND
     1    1    2 2
     2    1    3 1
     3    1    4 1
     4    1    8 1
     5    4   32 1
     6    5    6 2
     7    5    7 1
     8    5    8 1
     9    5   12 1
    10    8   33 1
    11    8   34 1
    12    9   10 2
    13    9   11 1
    14    9   12 1
    15    9   13 1
    16   13   14 1
    17   14   15 1
    18   14   35 1
    19   14   36 1
    20   15   16 1
    21   15   17 1
    22   15   37 1
    23   16   21 1
    24   17   18 1
    25   17   19 1
    26   17   38 1
    27   18   39 1
    28   19   20 1
    29   19   21 1
    30   19   40 1
    31   20   41 1
    32   21   22 1
    33   21   42 1
    34   22   23 ar
    35   22   31 ar
    36   23   24 ar
    37   23   43 1
    38   24   25 ar
    39   24   47 1
    40   25   26 ar
    41   25   31 ar
    42   26   27 1
    43   26   28 ar
    44   27   44 1
    45   27   45 1
    46   28   29 ar
    47   29   30 ar
    48   29   46 1
    49   30   31 ar
@<TRIPOS>SUBSTRUCTURE
     1 ACP         1 GROUP 0 A     ****
@<TRIPOS>MOLECULE
[[5-(6-amino-7,8-dihydropurin-8-ylium-9-yl)-3,4-dihydroxy-tetrahydrofuran-2-yl]methoxy-oxido-phosphoryl]oxy-[[hydroxy(oxido)phosphoryl]methyl]phosphinate
   47    49     1     0     0
SMALL
USER_CHARGES

@<TRIPOS>ATOM
      1 PG          6.5119   -0.8606   -5.1777 P.3       1 ACP         1.3755
      2 O1G         7.5555    0.1902   -5.4770 O.co2     1 ACP        -0.8970
      3 O2G         6.7970   -2.3384   -5.3156 O.co2     1 ACP        -0.8970
      4 O3G         5.8564   -0.5715   -3.7126 O.3       1 ACP        -0.7959
      5 PB          3.4884   -1.5062   -6.1864 P.3       1 ACP         1.5194
      6 O1B         3.8678   -2.9076   -6.6045 O.co2     1 ACP        -0.8958
      7 O2B         2.4145   -0.7171   -6.8993 O.co2     1 ACP        -0.8958
      8 C3B         5.0287   -0.4859   -6.2132 C.3       1 ACP        -0.5612
      9 PA          2.1362   -2.2698   -3.6575 P.3       1 ACP         1.6019
     10 O1A         2.4953   -3.7397   -3.6734 O.co2     1 ACP        -0.9040
     11 O2A         0.7453   -1.8118   -4.0395 O.co2     1 ACP        -0.9040
     12 O3A         3.2175   -1.4646   -4.5792 O.3       1 ACP        -0.8156
     13 O5'         2.5237   -1.6631   -2.1889 O.3       1 ACP        -0.5465
     14 C5'         2.2816   -0.2918   -1.9206 C.3       1 ACP         0.2108
     15 C4'         2.7248    0.0226   -0.4980 C.3       1 ACP         0.0552
     16 O4'         2.4697    1.4219   -0.2462 O.3       1 ACP        -0.3428
     17 C3'         1.9404   -0.7419    0.5596 C.3       1 ACP         0.0750
     18 O3'         2.7418   -0.8086    1.7389 O.3       1 ACP        -0.6066
     19 C2'         0.7477    0.1630    0.7858 C.3       1 ACP         0.1185
     20 O2'         0.1373   -0.0577    2.0407 O.3       1 ACP        -0.5858
     21 C1'         1.3733    1.5427    0.6747 C.3       1 ACP         0.3826
     22 N9          0.4520    2.5240    0.1767 N.pl3     1 ACP        -0.5729
     23 C8          0.1928    2.8484   -1.0815 C.ar      1 ACP         0.3288
     24 N7         -0.7248    3.8048   -1.2110 N.pl3     1 ACP        -0.5338
     25 C5         -1.0765    4.1129    0.0571 C.ar      1 ACP        -0.2581
     26 C6         -1.9614    5.0063    0.5851 C.ar      1 ACP         0.7413
     27 N6         -2.7145    5.8254   -0.2810 N.pl3     1 ACP        -0.9512
     28 N1         -2.1199    5.1113    1.9228 N.ar      1 ACP        -0.7699
     29 C2         -1.3522    4.2822    2.6839 C.ar      1 ACP         0.6898
     30 N3         -0.4501    3.3660    2.2638 N.ar      1 ACP        -0.6800
     31 C4         -0.3487    3.3198    0.9322 C.ar      1 ACP         0.6129
     32 HOG3        6.4455   -0.5720   -2.9283 H         1 ACP         0.4199
     33 H3B1        5.3781   -0.4776   -7.2516 H         1 ACP         0.0672
     34 H3B2        4.7219    0.5356   -5.9627 H         1 ACP         0.0672
     35 H5'1        2.8429    0.3140   -2.6391 H         1 ACP         0.0277
     36 H5'2        1.2125   -0.0906   -2.0420 H         1 ACP         0.0277
     37 H4'         3.8050   -0.1388   -0.4008 H         1 ACP         0.1249
     38 H3'         1.6784   -1.7629    0.2714 H         1 ACP         0.0564
     39 HO3'        2.2232   -1.2979    2.3953 H         1 ACP         0.4511
     40 H2'        -0.0011    0.0027    0.0003 H         1 ACP         0.0716
     41 HO2'       -0.6141    0.5574    2.1082 H         1 ACP         0.4454
     42 H1'         1.7826    1.9024    1.6451 H         1 ACP         0.1310
     43 H8          0.6728    2.3873   -1.9272 H         1 ACP         0.3565
     44 HN61       -2.5537    5.7714   -1.2667 H         1 ACP         0.4414
     45 HN62       -3.3283    6.5126    0.1080 H         1 ACP         0.4414
     46 H2         -1.4818    4.3694    3.7565 H         1 ACP         0.0676
     47 H47        -1.0701    4.2005   -2.0743 H         1 ACP         0.5052
@<TRIPOS>BOND
     1    1    2 2
     2    1    3 1
     3    1    4 1
     4    1    8 1
     5    4   32 1
     6    5    6 2
     7    5    7 1
     8    5    8 1
     9    5   12 1
    10    8   33 1
    11    8   34 1
    12    9   10 2
    13    9   11 1
    14    9   12 1
    15    9   13 1
    16   13   14 1
    17   14   15 1
    18   14   35 1
    19   14   36 1
    20   15   16 1
    21   15   17 1
    22   15   37 1
    23   16   21 1
    24   17   18 1
    25   17   19 1
    26   17   38 1
    27   18   39 1
    28   19   20 1
    29   19   21 1
    30   19   40 1
    31   20   41 1
    32   21   22 1
    33   21   42 1
    34   22   23 ar
    35   22   31 ar
    36   23   24 ar
    37   23   43 1
    38   24   25 ar
    39   24   47 1
    40   25   26 ar
    41   25   31 ar
    42   26   27 1
    43   26   28 ar
    44   27   44 1
    45   27   45 1
    46   28   29 ar
    47   29   30 ar
    48   29   46 1
    49   30   31 ar
@<TRIPOS>SUBSTRUCTURE
     1 ACP         1 GROUP 0 A     ****
@<TRIPOS>MOLECULE
[[5-(6-amino-7,8-dihydropurin-8-ylium-9-yl)-3,4-dihydroxy-tetrahydrofuran-2-yl]methoxy-oxido-phosphoryl]oxy-[[hydroxy(oxido)phosphoryl]methyl]phosphinate
   47    49     1     0     0
SMALL
USER_CHARGES

@<TRIPOS>ATOM
      1 PG         -2.6814   -2.3954   -2.5009 P.3       1 ACP         1.3755
      2 O1G        -3.8917   -1.6472   -1.9928 O.co2     1 ACP        -0.8970
      3 O2G        -1.5076   -2.7257   -1.6080 O.co2     1 ACP        -0.8970
      4 O3G        -3.1656   -3.7451   -3.2778 O.3       1 ACP        -0.7959
      5 PB         -0.5385   -2.0089   -4.9163 P.3       1 ACP         1.5194
      6 O1B        -0.3222   -0.9995   -6.0195 O.co2     1 ACP        -0.8958
      7 O2B        -0.6970   -3.4856   -5.1968 O.co2     1 ACP        -0.8958
      8 C3B        -2.0232   -1.4696   -3.9576 C.3       1 ACP        -0.5612
      9 PA          2.1362   -2.2698   -3.6575 P.3       1 ACP         1.6019
     10 O1A         2.9260   -1.5164   -4.7055 O.co2     1 ACP        -0.9040
     11 O2A         2.1742   -3.7818   -3.6026 O.co2     1 ACP        -0.9040
     12 O3A         0.5765   -1.7943   -3.7462 O.3       1 ACP        -0.8156
     13 O5'         2.5237   -1.6631   -2.1889 O.3       1 ACP        -0.5465
     14 C5'         2.2816   -0.2918   -1.9206 C.3       1 ACP         0.2108
     15 C4'         2.7248    0.0226   -0.4980 C.3       1 ACP         0.0552
     16 O4'         2.4697    1.4219   -0.2462 O.3       1 ACP        -0.3428
     17 C3'         1.9404   -0.7419    0.5596 C.3       1 ACP         0.0750
     18 O3'         2.7418   -0.8086    1.7389 O.3       1 ACP        -0.6066
     19 C2'         0.7477    0.1630    0.7858 C.3       1 ACP         0.1185
     20 O2'         0.1373   -0.0577    2.0407 O.3       1 ACP        -0.5858
     21 C1'         1.3733    1.5427    0.6747 C.3       1 ACP         0.3826
     22 N9          0.4520    2.5240    0.1767 N.pl3     1 ACP        -0.5729
     23 C8          0.1928    2.8484   -1.0815 C.ar      1 ACP         0.3288
     24 N7         -0.7248    3.8048   -1.2110 N.pl3     1 ACP        -0.5338
     25 C5         -1.0765    4.1129    0.0571 C.ar      1 ACP        -0.2581
     26 C6         -1.9614    5.0063    0.5851 C.ar      1 ACP         0.7413
     27 N6         -2.7145    5.8254   -0.2810 N.pl3     1 ACP        -0.9512
     28 N1         -2.1199    5.1113    1.9228 N.ar      1 ACP        -0.7699
     29 C2         -1.3522    4.2822    2.6839 C.ar      1 ACP         0.6898
     30 N3         -0.4501    3.3660    2.2638 N.ar      1 ACP        -0.6800
     31 C4         -0.3487    3.3198    0.9322 C.ar      1 ACP         0.6129
     32 HOG3       -3.6820   -4.4127   -2.7780 H         1 ACP         0.4199
     33 H3B1       -1.8119   -0.4551   -3.6019 H         1 ACP         0.0672
     34 H3B2       -2.8435   -1.3990   -4.6805 H         1 ACP         0.0672
     35 H5'1        2.8429    0.3140   -2.6391 H         1 ACP         0.0277
     36 H5'2        1.2125   -0.0906   -2.0420 H         1 ACP         0.0277
     37 H4'         3.8050   -0.1388   -0.4008 H         1 ACP         0.1249
     38 H3'         1.6784   -1.7629    0.2714 H         1 ACP         0.0564
     39 HO3'        2.2232   -1.2979    2.3953 H         1 ACP         0.4511
     40 H2'        -0.0011    0.0027    0.0003 H         1 ACP         0.0716
     41 HO2'       -0.6141    0.5574    2.1082 H         1 ACP         0.4454
     42 H1'         1.7826    1.9024    1.6451 H         1 ACP         0.1310
     43 H8          0.6728    2.3873   -1.9272 H         1 ACP         0.3565
     44 HN61       -2.5537    5.7714   -1.2667 H         1 ACP         0.4414
     45 HN62       -3.3283    6.5126    0.1080 H         1 ACP         0.4414
     46 H2         -1.4818    4.3694    3.7565 H         1 ACP         0.0676
     47 H47        -1.0701    4.2005   -2.0743 H         1 ACP         0.5052
@<TRIPOS>BOND
     1    1    2 2
     2    1    3 1
     3    1    4 1
     4    1    8 1
     5    4   32 1
     6    5    6 2
     7    5    7 1
     8    5    8 1
     9    5   12 1
    10    8   33 1
    11    8   34 1
    12    9   10 2
    13    9   11 1
    14    9   12 1
    15    9   13 1
    16   13   14 1
    17   14   15 1
    18   14   35 1
    19   14   36 1
    20   15   16 1
    21   15   17 1
    22   15   37 1
    23   16   21 1
    24   17   18 1
    25   17   19 1
    26   17   38 1
    27   18   39 1
    28   19   20 1
    29   19   21 1
    30   19   40 1
    31   20   41 1
    32   21   22 1
    33   21   42 1
    34   22   23 ar
    35   22   31 ar
    36   23   24 ar
    37   23   43 1
    38   24   25 ar
    39   24   47 1
    40   25   26 ar
    41   25   31 ar
    42   26   27 1
    43   26   28 ar
    44   27   44 1
    45   27   45 1
    46   28   29 ar
    47   29   30 ar
    48   29   46 1
    49   30   31 ar
@<TRIPOS>SUBSTRUCTURE
     1 ACP         1 GROUP 0 A     ****
@<TRIPOS>MOLECULE
[[5-(6-amino-7,8-dihydropurin-8-ylium-9-yl)-3,4-dihydroxy-tetrahydrofuran-2-yl]methoxy-oxido-phosphoryl]oxy-[[hydroxy(oxido)phosphoryl]methyl]phosphinate
   47    49     1     0     0
SMALL
USER_CHARGES

@<TRIPOS>ATOM
      1 PG         -0.8987    2.4231   -6.3893 P.3       1 ACP         1.3755
      2 O1G        -2.3826    2.6624   -6.2362 O.co2     1 ACP        -0.8970
      3 O2G        -0.3455    1.1227   -6.9251 O.co2     1 ACP        -0.8970
      4 O3G        -0.2297    3.6697   -7.2007 O.3       1 ACP        -0.7959
      5 PB          1.7026    2.5494   -4.4418 P.3       1 ACP         1.5194
      6 O1B         1.9503    2.8741   -2.9872 O.co2     1 ACP        -0.8958
      7 O2B         2.4153    3.2742   -5.5603 O.co2     1 ACP        -0.8958
      8 C3B        -0.1120    2.7213   -4.7448 C.3       1 ACP        -0.5612
      9 PA          3.0653   -0.0868   -4.4294 P.3       1 ACP         1.6019
     10 O1A         4.2789    0.4515   -5.1554 O.co2     1 ACP        -0.9040
     11 O2A         2.5799   -1.4982   -4.6803 O.co2     1 ACP        -0.9040
     12 O3A         1.8195    0.9401   -4.6753 O.3       1 ACP        -0.8156
     13 O5'         3.2883    0.1336   -2.8242 O.3       1 ACP        -0.5465
     14 C5'         2.2816   -0.2918   -1.9206 C.3       1 ACP         0.2108
     15 C4'         2.7248    0.0226   -0.4980 C.3       1 ACP         0.0552
     16 O4'         2.4697    1.4219   -0.2462 O.3       1 ACP        -0.3428
     17 C3'         1.9404   -0.7419    0.5596 C.3       1 ACP         0.0750
     18 O3'         2.7418   -0.8086    1.7389 O.3       1 ACP        -0.6066
     19 C2'         0.7477    0.1630    0.7858 C.3       1 ACP         0.1185
     20 O2'         0.1373   -0.0577    2.0407 O.3       1 ACP        -0.5858
     21 C1'         1.3733    1.5427    0.6747 C.3       1 ACP         0.3826
     22 N9          0.4520    2.5240    0.1767 N.pl3     1 ACP        -0.5729
     23 C8         -0.2172    2.5216   -0.9668 C.ar      1 ACP         0.3288
     24 N7         -1.0011    3.5855   -1.1321 N.pl3     1 ACP        -0.5338
     25 C5         -0.8184    4.3200   -0.0123 C.ar      1 ACP        -0.2581
     26 C6         -1.3349    5.5079    0.4144 C.ar      1 ACP         0.7413
     27 N6         -2.2567    6.1930   -0.4036 N.pl3     1 ACP        -0.9512
     28 N1         -0.9716    6.0291    1.6069 N.ar      1 ACP        -0.7699
     29 C2         -0.0765    5.3009    2.3312 C.ar      1 ACP         0.6898
     30 N3          0.4933    4.1191    2.0023 N.ar      1 ACP        -0.6800
     31 C4          0.0865    3.6675    0.8123 C.ar      1 ACP         0.6129
     32 HOG3       -0.5482    3.8617   -8.1084 H         1 ACP         0.4199
     33 H3B1       -0.6100    2.0431   -4.0430 H         1 ACP         0.0672
     34 H3B2       -0.3740    3.7444   -4.4531 H         1 ACP         0.0672
     35 H5'1        1.3500    0.2325   -2.1560 H         1 ACP         0.0277
     36 H5'2        2.1267   -1.3683   -2.0444 H         1 ACP         0.0277
     37 H4'         3.8050   -0.1388   -0.4008 H         1 ACP         0.1249
     38 H3'         1.6784   -1.7629    0.2714 H         1 ACP         0.0564
     39 HO3'        2.2232   -1.2979    2.3953 H         1 ACP         0.4511
     40 H2'        -0.0011    0.0027    0.0003 H         1 ACP         0.0716
     41 HO2'       -0.6141    0.5574    2.1082 H         1 ACP         0.4454
     42 H1'         1.7826    1.9024    1.6451 H         1 ACP         0.1310
     43 H8         -0.1423    1.7373   -1.6999 H         1 ACP         0.3565
     44 HN61       -2.4811    5.8206   -1.3042 H         1 ACP         0.4414
     45 HN62       -2.5986    7.0863   -0.1113 H         1 ACP         0.4414
     46 H2          0.2128    5.7222    3.2871 H         1 ACP         0.0676
     47 H47        -1.5947    3.7835   -1.9255 H         1 ACP         0.5052
@<TRIPOS>BOND
     1    1    2 2
     2    1    3 1
     3    1    4 1
     4    1    8 1
     5    4   32 1
     6    5    6 2
     7    5    7 1
     8    5    8 1
     9    5   12 1
    10    8   33 1
    11    8   34 1
    12    9   10 2
    13    9   11 1
    14    9   12 1
    15    9   13 1
    16   13   14 1
    17   14   15 1
    18   14   35 1
    19   14   36 1
    20   15   16 1
    21   15   17 1
    22   15   37 1
    23   16   21 1
    24   17   18 1
    25   17   19 1
    26   17   38 1
    27   18   39 1
    28   19   20 1
    29   19   21 1
    30   19   40 1
    31   20   41 1
    32   21   22 1
    33   21   42 1
    34   22   23 ar
    35   22   31 ar
    36   23   24 ar
    37   23   43 1
    38   24   25 ar
    39   24   47 1
    40   25   26 ar
    41   25   31 ar
    42   26   27 1
    43   26   28 ar
    44   27   44 1
    45   27   45 1
    46   28   29 ar
    47   29   30 ar
    48   29   46 1
    49   30   31 ar
@<TRIPOS>SUBSTRUCTURE
     1 ACP         1 GROUP 0 A     ****
@<TRIPOS>MOLECULE
[[5-(6-amino-7,8-dihydropurin-8-ylium-9-yl)-3,4-dihydroxy-tetrahydrofuran-2-yl]methoxy-oxido-phosphoryl]oxy-[[hydroxy(oxido)phosphoryl]methyl]phosphinate
   47    49     1     0     0
SMALL
USER_CHARGES

@<TRIPOS>ATOM
      1 PG          0.1935   -3.1005   -4.9249 P.3       1 ACP         1.3755
      2 O1G         1.4501   -3.5791   -4.2359 O.co2     1 ACP        -0.8970
      3 O2G        -0.7528   -4.0511   -5.6214 O.co2     1 ACP        -0.8970
      4 O3G        -0.6516   -2.1455   -3.9084 O.3       1 ACP        -0.7959
      5 PB          1.5457   -0.2441   -5.6916 P.3       1 ACP         1.5194
      6 O1B         0.6408    0.5026   -4.7396 O.co2     1 ACP        -0.8958
      7 O2B         2.0601    0.3798   -6.9686 O.co2     1 ACP        -0.8958
      8 C3B         0.6862   -1.8129   -6.1544 C.3       1 ACP        -0.5612
      9 PA          3.9534   -0.2075   -3.9573 P.3       1 ACP         1.6019
     10 O1A         4.6225    0.8729   -4.7788 O.co2     1 ACP        -0.9040
     11 O2A         4.7732   -1.3027   -3.3100 O.co2     1 ACP        -0.9040
     12 O3A         2.7896   -0.9020   -4.8683 O.3       1 ACP        -0.8156
     13 O5'         3.0198    0.5138   -2.8245 O.3       1 ACP        -0.5465
     14 C5'         2.2816   -0.2918   -1.9206 C.3       1 ACP         0.2108
     15 C4'         2.7248    0.0226   -0.4980 C.3       1 ACP         0.0552
     16 O4'         2.4697    1.4219   -0.2462 O.3       1 ACP        -0.3428
     17 C3'         1.9404   -0.7419    0.5596 C.3       1 ACP         0.0750
     18 O3'         2.7418   -0.8086    1.7389 O.3       1 ACP        -0.6066
     19 C2'         0.7477    0.1630    0.7858 C.3       1 ACP         0.1185
     20 O2'         0.1373   -0.0577    2.0407 O.3       1 ACP        -0.5858
     21 C1'         1.3733    1.5427    0.6747 C.3       1 ACP         0.3826
     22 N9          0.4520    2.5240    0.1767 N.pl3     1 ACP        -0.5729
     23 C8          0.1928    2.8484   -1.0815 C.ar      1 ACP         0.3288
     24 N7         -0.7248    3.8048   -1.2110 N.pl3     1 ACP        -0.5338
     25 C5         -1.0765    4.1129    0.0571 C.ar      1 ACP        -0.2581
     26 C6         -1.9614    5.0063    0.5851 C.ar      1 ACP         0.7413
     27 N6         -2.7145    5.8254   -0.2810 N.pl3     1 ACP        -0.9512
     28 N1         -2.1199    5.1113    1.9228 N.ar      1 ACP        -0.7699
     29 C2         -1.3522    4.2822    2.6839 C.ar      1 ACP         0.6898
     30 N3         -0.4501    3.3660    2.2638 N.ar      1 ACP        -0.6800
     31 C4         -0.3487    3.3198    0.9322 C.ar      1 ACP         0.6129
     32 HOG3       -0.9603   -2.5249   -3.0581 H         1 ACP         0.4199
     33 H3B1       -0.2336   -1.5220   -6.6739 H         1 ACP         0.0672
     34 H3B2        1.3324   -2.3099   -6.8864 H         1 ACP         0.0672
     35 H5'1        1.2153   -0.0781   -2.0454 H         1 ACP         0.0277
     36 H5'2        2.4645   -1.3454   -2.1547 H         1 ACP         0.0277
     37 H4'         3.8050   -0.1388   -0.4008 H         1 ACP         0.1249
     38 H3'         1.6784   -1.7629    0.2714 H         1 ACP         0.0564
     39 HO3'        2.2232   -1.2979    2.3953 H         1 ACP         0.4511
     40 H2'        -0.0011    0.0027    0.0003 H         1 ACP         0.0716
     41 HO2'       -0.6141    0.5574    2.1082 H         1 ACP         0.4454
     42 H1'         1.7826    1.9024    1.6451 H         1 ACP         0.1310
     43 H8          0.6728    2.3873   -1.9272 H         1 ACP         0.3565
     44 HN61       -2.5537    5.7714   -1.2667 H         1 ACP         0.4414
     45 HN62       -3.3283    6.5126    0.1080 H         1 ACP         0.4414
     46 H2         -1.4818    4.3694    3.7565 H         1 ACP         0.0676
     47 H47        -1.0701    4.2005   -2.0743 H         1 ACP         0.5052
@<TRIPOS>BOND
     1    1    2 2
     2    1    3 1
     3    1    4 1
     4    1    8 1
     5    4   32 1
     6    5    6 2
     7    5    7 1
     8    5    8 1
     9    5   12 1
    10    8   33 1
    11    8   34 1
    12    9   10 2
    13    9   11 1
    14    9   12 1
    15    9   13 1
    16   13   14 1
    17   14   15 1
    18   14   35 1
    19   14   36 1
    20   15   16 1
    21   15   17 1
    22   15   37 1
    23   16   21 1
    24   17   18 1
    25   17   19 1
    26   17   38 1
    27   18   39 1
    28   19   20 1
    29   19   21 1
    30   19   40 1
    31   20   41 1
    32   21   22 1
    33   21   42 1
    34   22   23 ar
    35   22   31 ar
    36   23   24 ar
    37   23   43 1
    38   24   25 ar
    39   24   47 1
    40   25   26 ar
    41   25   31 ar
    42   26   27 1
    43   26   28 ar
    44   27   44 1
    45   27   45 1
    46   28   29 ar
    47   29   30 ar
    48   29   46 1
    49   30   31 ar
@<TRIPOS>SUBSTRUCTURE
     1 ACP         1 GROUP 0 A     ****
@<TRIPOS>MOLECULE
[[5-(6-amino-7,8-dihydropurin-8-ylium-9-yl)-3,4-dihydroxy-tetrahydrofuran-2-yl]methoxy-oxido-phosphoryl]oxy-[[hydroxy(oxido)phosphoryl]methyl]phosphinate
   47    49     1     0     0
SMALL
USER_CHARGES

@<TRIPOS>ATOM
      1 PG         -0.9454    1.7601   -5.6894 P.3       1 ACP         1.3755
      2 O1G        -0.3917    2.7022   -6.7328 O.co2     1 ACP        -0.8970
      3 O2G        -0.6176    1.9050   -4.2211 O.co2     1 ACP        -0.8970
      4 O3G        -2.5613    1.6379   -5.8725 O.3       1 ACP        -0.7959
      5 PB          1.2580   -0.5250   -6.3956 P.3       1 ACP         1.5194
      6 O1B         1.8885    0.3351   -7.4658 O.co2     1 ACP        -0.8958
      7 O2B         1.2331   -2.0334   -6.4871 O.co2     1 ACP        -0.8958
      8 C3B        -0.4886    0.0416   -6.1897 C.3       1 ACP        -0.5612
      9 PA          3.3324   -0.0529   -4.3266 P.3       1 ACP         1.6019
     10 O1A         4.1264    0.9964   -5.0738 O.co2     1 ACP        -0.9040
     11 O2A         3.8347   -1.4774   -4.2320 O.co2     1 ACP        -0.9040
     12 O3A         1.8151   -0.0782   -4.9299 O.3       1 ACP        -0.8156
     13 O5'         3.0198    0.5138   -2.8245 O.3       1 ACP        -0.5465
     14 C5'         2.2816   -0.2918   -1.9206 C.3       1 ACP         0.2108
     15 C4'         2.7248    0.0226   -0.4980 C.3       1 ACP         0.0552
     16 O4'         2.4697    1.4219   -0.2462 O.3       1 ACP        -0.3428
     17 C3'         1.9404   -0.7419    0.5596 C.3       1 ACP         0.0750
     18 O3'         2.7418   -0.8086    1.7389 O.3       1 ACP        -0.6066
     19 C2'         0.7477    0.1630    0.7858 C.3       1 ACP         0.1185
     20 O2'         0.1373   -0.0577    2.0407 O.3       1 ACP        -0.5858
     21 C1'         1.3733    1.5427    0.6747 C.3       1 ACP         0.3826
     22 N9          0.4520    2.5240    0.1767 N.pl3     1 ACP        -0.5729
     23 C8          0.1928    2.8484   -1.0815 C.ar      1 ACP         0.3288
     24 N7         -0.7248    3.8048   -1.2110 N.pl3     1 ACP        -0.5338
     25 C5         -1.0765    4.1129    0.0571 C.ar      1 ACP        -0.2581
     26 C6         -1.9614    5.0063    0.5851 C.ar      1 ACP         0.7413
     27 N6         -2.7145    5.8254   -0.2810 N.pl3     1 ACP        -0.9512
     28 N1         -2.1199    5.1113    1.9228 N.ar      1 ACP        -0.7699
     29 C2         -1.3522    4.2822    2.6839 C.ar      1 ACP         0.6898
     30 N3         -0.4501    3.3660    2.2638 N.ar      1 ACP        -0.6800
     31 C4         -0.3487    3.3198    0.9322 C.ar      1 ACP         0.6129
     32 HOG3       -3.1042    2.4508   -5.7903 H         1 ACP         0.4199
     33 H3B1       -0.9889   -0.1384   -7.1477 H         1 ACP         0.0672
     34 H3B2       -0.9419   -0.6302   -5.4523 H         1 ACP         0.0672
     35 H5'1        1.2153   -0.0781   -2.0454 H         1 ACP         0.0277
     36 H5'2        2.4645   -1.3454   -2.1547 H         1 ACP         0.0277
     37 H4'         3.8050   -0.1388   -0.4008 H         1 ACP         0.1249
     38 H3'         1.6784   -1.7629    0.2714 H         1 ACP         0.0564
     39 HO3'        2.2232   -1.2979    2.3953 H         1 ACP         0.4511
     40 H2'        -0.0011    0.0027    0.0003 H         1 ACP         0.0716
     41 HO2'       -0.6141    0.5574    2.1082 H         1 ACP         0.4454
     42 H1'         1.7826    1.9024    1.6451 H         1 ACP         0.1310
     43 H8          0.6728    2.3873   -1.9272 H         1 ACP         0.3565
     44 HN61       -2.5537    5.7714   -1.2667 H         1 ACP         0.4414
     45 HN62       -3.3283    6.5126    0.1080 H         1 ACP         0.4414
     46 H2         -1.4818    4.3694    3.7565 H         1 ACP         0.0676
     47 H47        -1.0701    4.2005   -2.0743 H         1 ACP         0.5052
@<TRIPOS>BOND
     1    1    2 2
     2    1    3 1
     3    1    4 1
     4    1    8 1
     5    4   32 1
     6    5    6 2
     7    5    7 1
     8    5    8 1
     9    5   12 1
    10    8   33 1
    11    8   34 1
    12    9   10 2
    13    9   11 1
    14    9   12 1
    15    9   13 1
    16   13   14 1
    17   14   15 1
    18   14   35 1
    19   14   36 1
    20   15   16 1
    21   15   17 1
    22   15   37 1
    23   16   21 1
    24   17   18 1
    25   17   19 1
    26   17   38 1
    27   18   39 1
    28   19   20 1
    29   19   21 1
    30   19   40 1
    31   20   41 1
    32   21   22 1
    33   21   42 1
    34   22   23 ar
    35   22   31 ar
    36   23   24 ar
    37   23   43 1
    38   24   25 ar
    39   24   47 1
    40   25   26 ar
    41   25   31 ar
    42   26   27 1
    43   26   28 ar
    44   27   44 1
    45   27   45 1
    46   28   29 ar
    47   29   30 ar
    48   29   46 1
    49   30   31 ar
@<TRIPOS>SUBSTRUCTURE
     1 ACP         1 GROUP 0 A     ****
@<TRIPOS>MOLECULE
[[5-(6-amino-7,8-dihydropurin-8-ylium-9-yl)-3,4-dihydroxy-tetrahydrofuran-2-yl]methoxy-oxido-phosphoryl]oxy-[[hydroxy(oxido)phosphoryl]methyl]phosphinate
   47    49     1     0     0
SMALL
USER_CHARGES

@<TRIPOS>ATOM
      1 PG          4.6899   -0.2182   -7.5464 P.3       1 ACP         1.3755
      2 O1G         5.0548    1.0913   -8.2058 O.co2     1 ACP        -0.8970
      3 O2G         3.2988   -0.8022   -7.6349 O.co2     1 ACP        -0.8970
      4 O3G         5.7811   -1.3568   -7.9621 O.3       1 ACP        -0.7959
      5 PB          4.8472   -1.4445   -4.5386 P.3       1 ACP         1.5194
      6 O1B         5.3187   -0.9488   -3.1915 O.co2     1 ACP        -0.8958
      7 O2B         5.3827   -2.7133   -5.1613 O.co2     1 ACP        -0.8958
      8 C3B         5.1171   -0.0797   -5.7546 C.3       1 ACP        -0.5612
      9 PA          2.1362   -2.2698   -3.6575 P.3       1 ACP         1.6019
     10 O1A         2.4953   -3.7397   -3.6734 O.co2     1 ACP        -0.9040
     11 O2A         0.7453   -1.8118   -4.0395 O.co2     1 ACP        -0.9040
     12 O3A         3.2175   -1.4646   -4.5792 O.3       1 ACP        -0.8156
     13 O5'         2.5237   -1.6631   -2.1889 O.3       1 ACP        -0.5465
     14 C5'         2.2816   -0.2918   -1.9206 C.3       1 ACP         0.2108
     15 C4'         2.7248    0.0226   -0.4980 C.3       1 ACP         0.0552
     16 O4'         2.4697    1.4219   -0.2462 O.3       1 ACP        -0.3428
     17 C3'         1.9404   -0.7419    0.5596 C.3       1 ACP         0.0750
     18 O3'         2.7418   -0.8086    1.7389 O.3       1 ACP        -0.6066
     19 C2'         0.7477    0.1630    0.7858 C.3       1 ACP         0.1185
     20 O2'         0.1373   -0.0577    2.0407 O.3       1 ACP        -0.5858
     21 C1'         1.3733    1.5427    0.6747 C.3       1 ACP         0.3826
     22 N9          0.4520    2.5240    0.1767 N.pl3     1 ACP        -0.5729
     23 C8          0.1928    2.8484   -1.0815 C.ar      1 ACP         0.3288
     24 N7         -0.7248    3.8048   -1.2110 N.pl3     1 ACP        -0.5338
     25 C5         -1.0765    4.1129    0.0571 C.ar      1 ACP        -0.2581
     26 C6         -1.9614    5.0063    0.5851 C.ar      1 ACP         0.7413
     27 N6         -2.7145    5.8254   -0.2810 N.pl3     1 ACP        -0.9512
     28 N1         -2.1199    5.1113    1.9228 N.ar      1 ACP        -0.7699
     29 C2         -1.3522    4.2822    2.6839 C.ar      1 ACP         0.6898
     30 N3         -0.4501    3.3660    2.2638 N.ar      1 ACP        -0.6800
     31 C4         -0.3487    3.3198    0.9322 C.ar      1 ACP         0.6129
     32 HOG3        5.8899   -1.5756   -8.9121 H         1 ACP         0.4199
     33 H3B1        4.5635    0.7872   -5.3770 H         1 ACP         0.0672
     34 H3B2        6.1837    0.1660   -5.7050 H         1 ACP         0.0672
     35 H5'1        2.8429    0.3140   -2.6391 H         1 ACP         0.0277
     36 H5'2        1.2125   -0.0906   -2.0420 H         1 ACP         0.0277
     37 H4'         3.8050   -0.1388   -0.4008 H         1 ACP         0.1249
     38 H3'         1.6784   -1.7629    0.2714 H         1 ACP         0.0564
     39 HO3'        2.2232   -1.2979    2.3953 H         1 ACP         0.4511
     40 H2'        -0.0011    0.0027    0.0003 H         1 ACP         0.0716
     41 HO2'       -0.6141    0.5574    2.1082 H         1 ACP         0.4454
     42 H1'         1.7826    1.9024    1.6451 H         1 ACP         0.1310
     43 H8          0.6728    2.3873   -1.9272 H         1 ACP         0.3565
     44 HN61       -2.5537    5.7714   -1.2667 H         1 ACP         0.4414
     45 HN62       -3.3283    6.5126    0.1080 H         1 ACP         0.4414
     46 H2         -1.4818    4.3694    3.7565 H         1 ACP         0.0676
     47 H47        -1.0701    4.2005   -2.0743 H         1 ACP         0.5052
@<TRIPOS>BOND
     1    1    2 2
     2    1    3 1
     3    1    4 1
     4    1    8 1
     5    4   32 1
     6    5    6 2
     7    5    7 1
     8    5    8 1
     9    5   12 1
    10    8   33 1
    11    8   34 1
    12    9   10 2
    13    9   11 1
    14    9   12 1
    15    9   13 1
    16   13   14 1
    17   14   15 1
    18   14   35 1
    19   14   36 1
    20   15   16 1
    21   15   17 1
    22   15   37 1
    23   16   21 1
    24   17   18 1
    25   17   19 1
    26   17   38 1
    27   18   39 1
    28   19   20 1
    29   19   21 1
    30   19   40 1
    31   20   41 1
    32   21   22 1
    33   21   42 1
    34   22   23 ar
    35   22   31 ar
    36   23   24 ar
    37   23   43 1
    38   24   25 ar
    39   24   47 1
    40   25   26 ar
    41   25   31 ar
    42   26   27 1
    43   26   28 ar
    44   27   44 1
    45   27   45 1
    46   28   29 ar
    47   29   30 ar
    48   29   46 1
    49   30   31 ar
@<TRIPOS>SUBSTRUCTURE
     1 ACP         1 GROUP 0 A     ****
@<TRIPOS>MOLECULE
[[5-(6-amino-7,8-dihydropurin-8-ylium-9-yl)-3,4-dihydroxy-tetrahydrofuran-2-yl]methoxy-oxido-phosphoryl]oxy-[[hydroxy(oxido)phosphoryl]methyl]phosphinate
   47    49     1     0     0
SMALL
USER_CHARGES

@<TRIPOS>ATOM
      1 PG          1.6296    1.3587   -6.4075 P.3       1 ACP         1.3755
      2 O1G         2.4580    2.3352   -7.2094 O.co2     1 ACP        -0.8970
      3 O2G         1.5628    1.4114   -4.8985 O.co2     1 ACP        -0.8970
      4 O3G         0.1164    1.3062   -7.0135 O.3       1 ACP        -0.7959
      5 PB          1.4292   -1.8769   -6.1501 P.3       1 ACP         1.5194
      6 O1B         2.1270   -3.0578   -6.7835 O.co2     1 ACP        -0.8958
      7 O2B        -0.0730   -1.7149   -6.1884 O.co2     1 ACP        -0.8958
      8 C3B         2.1652   -0.3457   -6.8768 C.3       1 ACP        -0.5612
      9 PA          1.5537   -2.4539   -3.2418 P.3       1 ACP         1.6019
     10 O1A         2.0300   -3.8868   -3.3414 O.co2     1 ACP        -0.9040
     11 O2A         0.1072   -2.1427   -2.9238 O.co2     1 ACP        -0.9040
     12 O3A         1.9587   -1.6787   -4.6209 O.3       1 ACP        -0.8156
     13 O5'         2.5237   -1.6631   -2.1889 O.3       1 ACP        -0.5465
     14 C5'         2.2816   -0.2918   -1.9206 C.3       1 ACP         0.2108
     15 C4'         2.7248    0.0226   -0.4980 C.3       1 ACP         0.0552
     16 O4'         2.4697    1.4219   -0.2462 O.3       1 ACP        -0.3428
     17 C3'         1.9404   -0.7419    0.5596 C.3       1 ACP         0.0750
     18 O3'         2.7418   -0.8086    1.7389 O.3       1 ACP        -0.6066
     19 C2'         0.7477    0.1630    0.7858 C.3       1 ACP         0.1185
     20 O2'         0.1373   -0.0577    2.0407 O.3       1 ACP        -0.5858
     21 C1'         1.3733    1.5427    0.6747 C.3       1 ACP         0.3826
     22 N9          0.4520    2.5240    0.1767 N.pl3     1 ACP        -0.5729
     23 C8          0.1928    2.8484   -1.0815 C.ar      1 ACP         0.3288
     24 N7         -0.7248    3.8048   -1.2110 N.pl3     1 ACP        -0.5338
     25 C5         -1.0765    4.1129    0.0571 C.ar      1 ACP        -0.2581
     26 C6         -1.9614    5.0063    0.5851 C.ar      1 ACP         0.7413
     27 N6         -2.7145    5.8254   -0.2810 N.pl3     1 ACP        -0.9512
     28 N1         -2.1199    5.1113    1.9228 N.ar      1 ACP        -0.7699
     29 C2         -1.3522    4.2822    2.6839 C.ar      1 ACP         0.6898
     30 N3         -0.4501    3.3660    2.2638 N.ar      1 ACP        -0.6800
     31 C4         -0.3487    3.3198    0.9322 C.ar      1 ACP         0.6129
     32 HOG3       -0.4115    2.1328   -7.0257 H         1 ACP         0.4199
     33 H3B1        3.2411   -0.3919   -6.6748 H         1 ACP         0.0672
     34 H3B2        2.0318   -0.4285   -7.9611 H         1 ACP         0.0672
     35 H5'1        2.8429    0.3140   -2.6391 H         1 ACP         0.0277
     36 H5'2        1.2125   -0.0906   -2.0420 H         1 ACP         0.0277
     37 H4'         3.8050   -0.1388   -0.4008 H         1 ACP         0.1249
     38 H3'         1.6784   -1.7629    0.2714 H         1 ACP         0.0564
     39 HO3'        2.2232   -1.2979    2.3953 H         1 ACP         0.4511
     40 H2'        -0.0011    0.0027    0.0003 H         1 ACP         0.0716
     41 HO2'       -0.6141    0.5574    2.1082 H         1 ACP         0.4454
     42 H1'         1.7826    1.9024    1.6451 H         1 ACP         0.1310
     43 H8          0.6728    2.3873   -1.9272 H         1 ACP         0.3565
     44 HN61       -2.5537    5.7714   -1.2667 H         1 ACP         0.4414
     45 HN62       -3.3283    6.5126    0.1080 H         1 ACP         0.4414
     46 H2         -1.4818    4.3694    3.7565 H         1 ACP         0.0676
     47 H47        -1.0701    4.2005   -2.0743 H         1 ACP         0.5052
@<TRIPOS>BOND
     1    1    2 2
     2    1    3 1
     3    1    4 1
     4    1    8 1
     5    4   32 1
     6    5    6 2
     7    5    7 1
     8    5    8 1
     9    5   12 1
    10    8   33 1
    11    8   34 1
    12    9   10 2
    13    9   11 1
    14    9   12 1
    15    9   13 1
    16   13   14 1
    17   14   15 1
    18   14   35 1
    19   14   36 1
    20   15   16 1
    21   15   17 1
    22   15   37 1
    23   16   21 1
    24   17   18 1
    25   17   19 1
    26   17   38 1
    27   18   39 1
    28   19   20 1
    29   19   21 1
    30   19   40 1
    31   20   41 1
    32   21   22 1
    33   21   42 1
    34   22   23 ar
    35   22   31 ar
    36   23   24 ar
    37   23   43 1
    38   24   25 ar
    39   24   47 1
    40   25   26 ar
    41   25   31 ar
    42   26   27 1
    43   26   28 ar
    44   27   44 1
    45   27   45 1
    46   28   29 ar
    47   29   30 ar
    48   29   46 1
    49   30   31 ar
@<TRIPOS>SUBSTRUCTURE
     1 ACP         1 GROUP 0 A     ****
@<TRIPOS>MOLECULE
[[5-(6-amino-7,8-dihydropurin-8-ylium-9-yl)-3,4-dihydroxy-tetrahydrofuran-2-yl]methoxy-oxido-phosphoryl]oxy-[[hydroxy(oxido)phosphoryl]methyl]phosphinate
   47    49     1     0     0
SMALL
USER_CHARGES

@<TRIPOS>ATOM
      1 PG         -4.7977   -4.2825   -1.3277 P.3       1 ACP         1.3755
      2 O1G        -3.3024   -4.1165   -1.1889 O.co2     1 ACP        -0.8970
      3 O2G        -5.6295   -3.3721   -2.2014 O.co2     1 ACP        -0.8970
      4 O3G        -5.1392   -5.8362   -1.6875 O.3       1 ACP        -0.7959
      5 PB         -5.0815   -5.4394    1.6982 P.3       1 ACP         1.5194
      6 O1B        -5.4425   -6.8181    1.1966 O.co2     1 ACP        -0.8958
      7 O2B        -5.6191   -4.8908    2.9999 O.co2     1 ACP        -0.8958
      8 C3B        -5.5253   -4.2346    0.3695 C.3       1 ACP        -0.5612
      9 PA         -2.2655   -6.0670    2.3934 P.3       1 ACP         1.6019
     10 O1A        -2.2247   -7.4675    1.8220 O.co2     1 ACP        -0.9040
     11 O2A        -2.3842   -5.8465    3.8860 O.co2     1 ACP        -0.9040
     12 O3A        -3.4638   -5.2419    1.6516 O.3       1 ACP        -0.8156
     13 O5'        -0.9728   -5.2427    1.8237 O.3       1 ACP        -0.5465
     14 C5'        -0.7840   -3.8935    2.2172 C.3       1 ACP         0.2108
     15 C4'        -0.0724   -3.1466    1.1027 C.3       1 ACP         0.0552
     16 O4'        -0.8674   -3.1929   -0.0945 O.3       1 ACP        -0.3428
     17 C3'         0.1338   -1.6715    1.4027 C.3       1 ACP         0.0750
     18 O3'         1.2893   -1.4445    2.1808 O.3       1 ACP        -0.6066
     19 C2'         0.2158   -1.0724    0.0128 C.3       1 ACP         0.1185
     20 O2'         1.5141   -1.2448   -0.5513 O.3       1 ACP        -0.5858
     21 C1'        -0.7897   -1.9176   -0.7583 C.3       1 ACP         0.3826
     22 N9         -2.1040   -1.3333   -0.7704 N.pl3     1 ACP        -0.5729
     23 C8         -3.0822   -1.4850    0.1102 C.ar      1 ACP         0.3288
     24 N7         -4.1844   -0.7999   -0.1888 N.pl3     1 ACP        -0.5338
     25 C5         -3.8875   -0.1651   -1.3445 C.ar      1 ACP        -0.2581
     26 C6         -4.5941    0.6799   -2.1486 C.ar      1 ACP         0.7413
     27 N6         -5.9138    1.0274   -1.7939 N.pl3     1 ACP        -0.9512
     28 N1         -4.0421    1.1824   -3.2748 N.ar      1 ACP        -0.7699
     29 C2         -2.7637    0.7937   -3.5405 C.ar      1 ACP         0.6898
     30 N3         -1.9788   -0.0343   -2.8139 N.ar      1 ACP        -0.6800
     31 C4         -2.5915   -0.4902   -1.7174 C.ar      1 ACP         0.6129
     32 HOG3       -4.7665   -6.2186   -2.5103 H         1 ACP         0.4199
     33 H3B1       -6.6105   -4.3045    0.2362 H         1 ACP         0.0672
     34 H3B2       -5.3085   -3.2401    0.7751 H         1 ACP         0.0672
     35 H5'1       -1.7614   -3.4427    2.4167 H         1 ACP         0.0277
     36 H5'2       -0.1870   -3.8723    3.1344 H         1 ACP         0.0277
     37 H4'         0.8886   -3.6447    0.8779 H         1 ACP         0.1249
     38 H3'        -0.7373   -1.2359    1.9870 H         1 ACP         0.0564
     39 HO3'        1.3408   -0.4870    2.3219 H         1 ACP         0.4511
     40 H2'        -0.0384   -0.0310    0.0096 H         1 ACP         0.0716
     41 HO2'        2.1463   -0.7958    0.0370 H         1 ACP         0.4454
     42 H1'        -0.4769   -2.1002   -1.8093 H         1 ACP         0.1310
     43 H8         -3.0031   -2.1011    0.9891 H         1 ACP         0.3565
     44 HN61       -6.3271    0.6117   -0.9836 H         1 ACP         0.4414
     45 HN62       -6.4471    1.6092   -2.4083 H         1 ACP         0.4414
     46 H2         -2.3243    1.1986   -4.4449 H         1 ACP         0.0676
     47 H47        -5.0436   -0.7722    0.3425 H         1 ACP         0.5052
@<TRIPOS>BOND
     1    1    2 2
     2    1    3 1
     3    1    4 1
     4    1    8 1
     5    4   32 1
     6    5    6 2
     7    5    7 1
     8    5    8 1
     9    5   12 1
    10    8   33 1
    11    8   34 1
    12    9   10 2
    13    9   11 1
    14    9   12 1
    15    9   13 1
    16   13   14 1
    17   14   15 1
    18   14   35 1
    19   14   36 1
    20   15   16 1
    21   15   17 1
    22   15   37 1
    23   16   21 1
    24   17   18 1
    25   17   19 1
    26   17   38 1
    27   18   39 1
    28   19   20 1
    29   19   21 1
    30   19   40 1
    31   20   41 1
    32   21   22 1
    33   21   42 1
    34   22   23 ar
    35   22   31 ar
    36   23   24 ar
    37   23   43 1
    38   24   25 ar
    39   24   47 1
    40   25   26 ar
    41   25   31 ar
    42   26   27 1
    43   26   28 ar
    44   27   44 1
    45   27   45 1
    46   28   29 ar
    47   29   30 ar
    48   29   46 1
    49   30   31 ar
@<TRIPOS>SUBSTRUCTURE
     1 ACP         1 GROUP 0 A     ****
@<TRIPOS>MOLECULE
[[5-(6-amino-7,8-dihydropurin-8-ylium-9-yl)-3,4-dihydroxy-tetrahydrofuran-2-yl]methoxy-oxido-phosphoryl]oxy-[[hydroxy(oxido)phosphoryl]methyl]phosphinate
   47    49     1     0     0
SMALL
USER_CHARGES

@<TRIPOS>ATOM
      1 PG          6.6984    1.2034   -3.7660 P.3       1 ACP         1.3755
      2 O1G         8.0432    1.5178   -3.1532 O.co2     1 ACP        -0.8970
      3 O2G         5.4063    1.3803   -3.0022 O.co2     1 ACP        -0.8970
      4 O3G         6.5759    1.9448   -5.2135 O.3       1 ACP        -0.7959
      5 PB          5.3244   -1.3769   -5.1905 P.3       1 ACP         1.5194
      6 O1B         5.7568   -2.7849   -5.5268 O.co2     1 ACP        -0.8958
      7 O2B         4.7951   -0.4259   -6.2392 O.co2     1 ACP        -0.8958
      8 C3B         6.7513   -0.5436   -4.3636 C.3       1 ACP        -0.5612
      9 PA          2.8591   -2.1299   -3.7201 P.3       1 ACP         1.6019
     10 O1A         3.0727   -3.6280   -3.7234 O.co2     1 ACP        -0.9040
     11 O2A         1.8686   -1.4903   -4.6689 O.co2     1 ACP        -0.9040
     12 O3A         4.3077   -1.4018   -3.9162 O.3       1 ACP        -0.8156
     13 O5'         2.5237   -1.6631   -2.1889 O.3       1 ACP        -0.5465
     14 C5'         2.2816   -0.2918   -1.9206 C.3       1 ACP         0.2108
     15 C4'         2.7248    0.0226   -0.4980 C.3       1 ACP         0.0552
     16 O4'         2.4697    1.4219   -0.2462 O.3       1 ACP        -0.3428
     17 C3'         1.9404   -0.7419    0.5596 C.3       1 ACP         0.0750
     18 O3'         2.7418   -0.8086    1.7389 O.3       1 ACP        -0.6066
     19 C2'         0.7477    0.1630    0.7858 C.3       1 ACP         0.1185
     20 O2'         0.1373   -0.0577    2.0407 O.3       1 ACP        -0.5858
     21 C1'         1.3733    1.5427    0.6747 C.3       1 ACP         0.3826
     22 N9          0.4520    2.5240    0.1767 N.pl3     1 ACP        -0.5729
     23 C8          0.1928    2.8484   -1.0815 C.ar      1 ACP         0.3288
     24 N7         -0.7248    3.8048   -1.2110 N.pl3     1 ACP        -0.5338
     25 C5         -1.0765    4.1129    0.0571 C.ar      1 ACP        -0.2581
     26 C6         -1.9614    5.0063    0.5851 C.ar      1 ACP         0.7413
     27 N6         -2.7145    5.8254   -0.2810 N.pl3     1 ACP        -0.9512
     28 N1         -2.1199    5.1113    1.9228 N.ar      1 ACP        -0.7699
     29 C2         -1.3522    4.2822    2.6839 C.ar      1 ACP         0.6898
     30 N3         -0.4501    3.3660    2.2638 N.ar      1 ACP        -0.6800
     31 C4         -0.3487    3.3198    0.9322 C.ar      1 ACP         0.6129
     32 HOG3        6.6441    2.9228   -5.2453 H         1 ACP         0.4199
     33 H3B1        7.0053   -1.1551   -3.4907 H         1 ACP         0.0672
     34 H3B2        7.5906   -0.6094   -5.0649 H         1 ACP         0.0672
     35 H5'1        2.8429    0.3140   -2.6391 H         1 ACP         0.0277
     36 H5'2        1.2125   -0.0906   -2.0420 H         1 ACP         0.0277
     37 H4'         3.8050   -0.1388   -0.4008 H         1 ACP         0.1249
     38 H3'         1.6784   -1.7629    0.2714 H         1 ACP         0.0564
     39 HO3'        2.2232   -1.2979    2.3953 H         1 ACP         0.4511
     40 H2'        -0.0011    0.0027    0.0003 H         1 ACP         0.0716
     41 HO2'       -0.6141    0.5574    2.1082 H         1 ACP         0.4454
     42 H1'         1.7826    1.9024    1.6451 H         1 ACP         0.1310
     43 H8          0.6728    2.3873   -1.9272 H         1 ACP         0.3565
     44 HN61       -2.5537    5.7714   -1.2667 H         1 ACP         0.4414
     45 HN62       -3.3283    6.5126    0.1080 H         1 ACP         0.4414
     46 H2         -1.4818    4.3694    3.7565 H         1 ACP         0.0676
     47 H47        -1.0701    4.2005   -2.0743 H         1 ACP         0.5052
@<TRIPOS>BOND
     1    1    2 2
     2    1    3 1
     3    1    4 1
     4    1    8 1
     5    4   32 1
     6    5    6 2
     7    5    7 1
     8    5    8 1
     9    5   12 1
    10    8   33 1
    11    8   34 1
    12    9   10 2
    13    9   11 1
    14    9   12 1
    15    9   13 1
    16   13   14 1
    17   14   15 1
    18   14   35 1
    19   14   36 1
    20   15   16 1
    21   15   17 1
    22   15   37 1
    23   16   21 1
    24   17   18 1
    25   17   19 1
    26   17   38 1
    27   18   39 1
    28   19   20 1
    29   19   21 1
    30   19   40 1
    31   20   41 1
    32   21   22 1
    33   21   42 1
    34   22   23 ar
    35   22   31 ar
    36   23   24 ar
    37   23   43 1
    38   24   25 ar
    39   24   47 1
    40   25   26 ar
    41   25   31 ar
    42   26   27 1
    43   26   28 ar
    44   27   44 1
    45   27   45 1
    46   28   29 ar
    47   29   30 ar
    48   29   46 1
    49   30   31 ar
@<TRIPOS>SUBSTRUCTURE
     1 ACP         1 GROUP 0 A     ****
@<TRIPOS>MOLECULE
[[5-(6-amino-7,8-dihydropurin-8-ylium-9-yl)-3,4-dihydroxy-tetrahydrofuran-2-yl]methoxy-oxido-phosphoryl]oxy-[[hydroxy(oxido)phosphoryl]methyl]phosphinate
   47    49     1     0     0
SMALL
USER_CHARGES

@<TRIPOS>ATOM
      1 PG          3.3020    2.4604   -5.4785 P.3       1 ACP         1.3755
      2 O1G         3.3723    3.4966   -6.5759 O.co2     1 ACP        -0.8970
      3 O2G         3.4517    2.8240   -4.0192 O.co2     1 ACP        -0.8970
      4 O3G         1.9603    1.5541   -5.6744 O.3       1 ACP        -0.7959
      5 PB          4.8419   -0.3188   -4.7857 P.3       1 ACP         1.5194
      6 O1B         5.2480    0.1822   -3.4194 O.co2     1 ACP        -0.8958
      7 O2B         5.6944   -1.2866   -5.5737 O.co2     1 ACP        -0.8958
      8 C3B         4.5600    1.1613   -5.8553 C.3       1 ACP        -0.5612
      9 PA          2.6179   -2.0499   -3.8561 P.3       1 ACP         1.6019
     10 O1A         3.4201   -3.3175   -4.0548 O.co2     1 ACP        -0.9040
     11 O2A         1.1258   -2.0342   -4.1089 O.co2     1 ACP        -0.9040
     12 O3A         3.3049   -0.8608   -4.7399 O.3       1 ACP        -0.8156
     13 O5'         2.9202   -1.4821   -2.3524 O.3       1 ACP        -0.5465
     14 C5'         2.2816   -0.2918   -1.9206 C.3       1 ACP         0.2108
     15 C4'         2.7248    0.0226   -0.4980 C.3       1 ACP         0.0552
     16 O4'         2.4697    1.4219   -0.2462 O.3       1 ACP        -0.3428
     17 C3'         1.9404   -0.7419    0.5596 C.3       1 ACP         0.0750
     18 O3'         2.7418   -0.8086    1.7389 O.3       1 ACP        -0.6066
     19 C2'         0.7477    0.1630    0.7858 C.3       1 ACP         0.1185
     20 O2'         0.1373   -0.0577    2.0407 O.3       1 ACP        -0.5858
     21 C1'         1.3733    1.5427    0.6747 C.3       1 ACP         0.3826
     22 N9          0.4520    2.5240    0.1767 N.pl3     1 ACP        -0.5729
     23 C8          0.1928    2.8484   -1.0815 C.ar      1 ACP         0.3288
     24 N7         -0.7248    3.8048   -1.2110 N.pl3     1 ACP        -0.5338
     25 C5         -1.0765    4.1129    0.0571 C.ar      1 ACP        -0.2581
     26 C6         -1.9614    5.0063    0.5851 C.ar      1 ACP         0.7413
     27 N6         -2.7145    5.8254   -0.2810 N.pl3     1 ACP        -0.9512
     28 N1         -2.1199    5.1113    1.9228 N.ar      1 ACP        -0.7699
     29 C2         -1.3522    4.2822    2.6839 C.ar      1 ACP         0.6898
     30 N3         -0.4501    3.3660    2.2638 N.ar      1 ACP        -0.6800
     31 C4         -0.3487    3.3198    0.9322 C.ar      1 ACP         0.6129
     32 HOG3        1.0872    2.0006   -5.6545 H         1 ACP         0.4199
     33 H3B1        5.5216    1.6817   -5.9257 H         1 ACP         0.0672
     34 H3B2        4.3227    0.7755   -6.8530 H         1 ACP         0.0672
     35 H5'1        2.5581    0.5235   -2.5966 H         1 ACP         0.0277
     36 H5'2        1.1974   -0.4370   -1.9607 H         1 ACP         0.0277
     37 H4'         3.8050   -0.1388   -0.4008 H         1 ACP         0.1249
     38 H3'         1.6784   -1.7629    0.2714 H         1 ACP         0.0564
     39 HO3'        2.2232   -1.2979    2.3953 H         1 ACP         0.4511
     40 H2'        -0.0011    0.0027    0.0003 H         1 ACP         0.0716
     41 HO2'       -0.1563   -0.9855    2.0596 H         1 ACP         0.4454
     42 H1'         1.7826    1.9024    1.6451 H         1 ACP         0.1310
     43 H8          0.6728    2.3873   -1.9272 H         1 ACP         0.3565
     44 HN61       -2.5537    5.7714   -1.2667 H         1 ACP         0.4414
     45 HN62       -3.3283    6.5126    0.1080 H         1 ACP         0.4414
     46 H2         -1.4818    4.3694    3.7565 H         1 ACP         0.0676
     47 H47        -1.0701    4.2005   -2.0743 H         1 ACP         0.5052
@<TRIPOS>BOND
     1    1    2 2
     2    1    3 1
     3    1    4 1
     4    1    8 1
     5    4   32 1
     6    5    6 2
     7    5    7 1
     8    5    8 1
     9    5   12 1
    10    8   33 1
    11    8   34 1
    12    9   10 2
    13    9   11 1
    14    9   12 1
    15    9   13 1
    16   13   14 1
    17   14   15 1
    18   14   35 1
    19   14   36 1
    20   15   16 1
    21   15   17 1
    22   15   37 1
    23   16   21 1
    24   17   18 1
    25   17   19 1
    26   17   38 1
    27   18   39 1
    28   19   20 1
    29   19   21 1
    30   19   40 1
    31   20   41 1
    32   21   22 1
    33   21   42 1
    34   22   23 ar
    35   22   31 ar
    36   23   24 ar
    37   23   43 1
    38   24   25 ar
    39   24   47 1
    40   25   26 ar
    41   25   31 ar
    42   26   27 1
    43   26   28 ar
    44   27   44 1
    45   27   45 1
    46   28   29 ar
    47   29   30 ar
    48   29   46 1
    49   30   31 ar
@<TRIPOS>SUBSTRUCTURE
     1 ACP         1 GROUP 0 A     ****
@<TRIPOS>MOLECULE
[[5-(6-amino-7,8-dihydropurin-8-ylium-9-yl)-3,4-dihydroxy-tetrahydrofuran-2-yl]methoxy-oxido-phosphoryl]oxy-[[hydroxy(oxido)phosphoryl]methyl]phosphinate
   47    49     1     0     0
SMALL
USER_CHARGES

@<TRIPOS>ATOM
      1 PG         -0.1550   -2.7412   -5.5555 P.3       1 ACP         1.3755
      2 O1G        -1.5053   -2.5771   -6.2133 O.co2     1 ACP        -0.8970
      3 O2G         0.1001   -2.3166   -4.1277 O.co2     1 ACP        -0.8970
      4 O3G         0.3673   -4.2719   -5.7652 O.3       1 ACP        -0.7959
      5 PB          2.8931   -1.8182   -6.2129 P.3       1 ACP         1.5194
      6 O1B         3.5735   -1.0368   -7.3125 O.co2     1 ACP        -0.8958
      7 O2B         3.3217   -3.2181   -5.8373 O.co2     1 ACP        -0.8958
      8 C3B         1.0913   -1.8853   -6.6168 C.3       1 ACP        -0.5612
      9 PA          3.9534   -0.2075   -3.9573 P.3       1 ACP         1.6019
     10 O1A         4.6225    0.8729   -4.7788 O.co2     1 ACP        -0.9040
     11 O2A         4.7732   -1.3027   -3.3100 O.co2     1 ACP        -0.9040
     12 O3A         2.7896   -0.9020   -4.8683 O.3       1 ACP        -0.8156
     13 O5'         3.0198    0.5138   -2.8245 O.3       1 ACP        -0.5465
     14 C5'         2.2816   -0.2918   -1.9206 C.3       1 ACP         0.2108
     15 C4'         2.7248    0.0226   -0.4980 C.3       1 ACP         0.0552
     16 O4'         2.4697    1.4219   -0.2462 O.3       1 ACP        -0.3428
     17 C3'         1.9404   -0.7419    0.5596 C.3       1 ACP         0.0750
     18 O3'         2.7418   -0.8086    1.7389 O.3       1 ACP        -0.6066
     19 C2'         0.7477    0.1630    0.7858 C.3       1 ACP         0.1185
     20 O2'         0.1373   -0.0577    2.0407 O.3       1 ACP        -0.5858
     21 C1'         1.3733    1.5427    0.6747 C.3       1 ACP         0.3826
     22 N9          0.4520    2.5240    0.1767 N.pl3     1 ACP        -0.5729
     23 C8          0.1928    2.8484   -1.0815 C.ar      1 ACP         0.3288
     24 N7         -0.7248    3.8048   -1.2110 N.pl3     1 ACP        -0.5338
     25 C5         -1.0765    4.1129    0.0571 C.ar      1 ACP        -0.2581
     26 C6         -1.9614    5.0063    0.5851 C.ar      1 ACP         0.7413
     27 N6         -2.7145    5.8254   -0.2810 N.pl3     1 ACP        -0.9512
     28 N1         -2.1199    5.1113    1.9228 N.ar      1 ACP        -0.7699
     29 C2         -1.3522    4.2822    2.6839 C.ar      1 ACP         0.6898
     30 N3         -0.4501    3.3660    2.2638 N.ar      1 ACP        -0.6800
     31 C4         -0.3487    3.3198    0.9322 C.ar      1 ACP         0.6129
     32 HOG3       -0.1772   -5.0052   -5.4074 H         1 ACP         0.4199
     33 H3B1        0.7533   -0.8467   -6.7039 H         1 ACP         0.0672
     34 H3B2        1.0187   -2.3378   -7.6120 H         1 ACP         0.0672
     35 H5'1        1.2153   -0.0781   -2.0454 H         1 ACP         0.0277
     36 H5'2        2.4645   -1.3454   -2.1547 H         1 ACP         0.0277
     37 H4'         3.8050   -0.1388   -0.4008 H         1 ACP         0.1249
     38 H3'         1.6784   -1.7629    0.2714 H         1 ACP         0.0564
     39 HO3'        2.2232   -1.2979    2.3953 H         1 ACP         0.4511
     40 H2'        -0.0011    0.0027    0.0003 H         1 ACP         0.0716
     41 HO2'       -0.6141    0.5574    2.1082 H         1 ACP         0.4454
     42 H1'         1.7826    1.9024    1.6451 H         1 ACP         0.1310
     43 H8          0.6728    2.3873   -1.9272 H         1 ACP         0.3565
     44 HN61       -2.5537    5.7714   -1.2667 H         1 ACP         0.4414
     45 HN62       -3.3283    6.5126    0.1080 H         1 ACP         0.4414
     46 H2         -1.4818    4.3694    3.7565 H         1 ACP         0.0676
     47 H47        -1.0701    4.2005   -2.0743 H         1 ACP         0.5052
@<TRIPOS>BOND
     1    1    2 2
     2    1    3 1
     3    1    4 1
     4    1    8 1
     5    4   32 1
     6    5    6 2
     7    5    7 1
     8    5    8 1
     9    5   12 1
    10    8   33 1
    11    8   34 1
    12    9   10 2
    13    9   11 1
    14    9   12 1
    15    9   13 1
    16   13   14 1
    17   14   15 1
    18   14   35 1
    19   14   36 1
    20   15   16 1
    21   15   17 1
    22   15   37 1
    23   16   21 1
    24   17   18 1
    25   17   19 1
    26   17   38 1
    27   18   39 1
    28   19   20 1
    29   19   21 1
    30   19   40 1
    31   20   41 1
    32   21   22 1
    33   21   42 1
    34   22   23 ar
    35   22   31 ar
    36   23   24 ar
    37   23   43 1
    38   24   25 ar
    39   24   47 1
    40   25   26 ar
    41   25   31 ar
    42   26   27 1
    43   26   28 ar
    44   27   44 1
    45   27   45 1
    46   28   29 ar
    47   29   30 ar
    48   29   46 1
    49   30   31 ar
@<TRIPOS>SUBSTRUCTURE
     1 ACP         1 GROUP 0 A     ****
@<TRIPOS>MOLECULE
[[5-(6-amino-7,8-dihydropurin-8-ylium-9-yl)-3,4-dihydroxy-tetrahydrofuran-2-yl]methoxy-oxido-phosphoryl]oxy-[[hydroxy(oxido)phosphoryl]methyl]phosphinate
   47    49     1     0     0
SMALL
USER_CHARGES

@<TRIPOS>ATOM
      1 PG          0.0352   -0.3805   -6.7964 P.3       1 ACP         1.3755
      2 O1G        -1.3655   -0.8417   -7.1254 O.co2     1 ACP        -0.8970
      3 O2G         0.7861    0.5961   -7.6720 O.co2     1 ACP        -0.8970
      4 O3G         0.0876    0.1311   -5.2487 O.3       1 ACP        -0.7959
      5 PB          2.8931   -1.8182   -6.2129 P.3       1 ACP         1.5194
      6 O1B         3.5735   -1.0368   -7.3125 O.co2     1 ACP        -0.8958
      7 O2B         3.3217   -3.2181   -5.8373 O.co2     1 ACP        -0.8958
      8 C3B         1.0913   -1.8853   -6.6168 C.3       1 ACP        -0.5612
      9 PA          3.9534   -0.2075   -3.9573 P.3       1 ACP         1.6019
     10 O1A         4.6225    0.8729   -4.7788 O.co2     1 ACP        -0.9040
     11 O2A         4.7732   -1.3027   -3.3100 O.co2     1 ACP        -0.9040
     12 O3A         2.7896   -0.9020   -4.8683 O.3       1 ACP        -0.8156
     13 O5'         3.0198    0.5138   -2.8245 O.3       1 ACP        -0.5465
     14 C5'         2.2816   -0.2918   -1.9206 C.3       1 ACP         0.2108
     15 C4'         2.7248    0.0226   -0.4980 C.3       1 ACP         0.0552
     16 O4'         2.4697    1.4219   -0.2462 O.3       1 ACP        -0.3428
     17 C3'         1.9404   -0.7419    0.5596 C.3       1 ACP         0.0750
     18 O3'         2.7418   -0.8086    1.7389 O.3       1 ACP        -0.6066
     19 C2'         0.7477    0.1630    0.7858 C.3       1 ACP         0.1185
     20 O2'         0.1373   -0.0577    2.0407 O.3       1 ACP        -0.5858
     21 C1'         1.3733    1.5427    0.6747 C.3       1 ACP         0.3826
     22 N9          0.4520    2.5240    0.1767 N.pl3     1 ACP        -0.5729
     23 C8          0.1928    2.8484   -1.0815 C.ar      1 ACP         0.3288
     24 N7         -0.7248    3.8048   -1.2110 N.pl3     1 ACP        -0.5338
     25 C5         -1.0765    4.1129    0.0571 C.ar      1 ACP        -0.2581
     26 C6         -1.9614    5.0063    0.5851 C.ar      1 ACP         0.7413
     27 N6         -2.7145    5.8254   -0.2810 N.pl3     1 ACP        -0.9512
     28 N1         -2.1199    5.1113    1.9228 N.ar      1 ACP        -0.7699
     29 C2         -1.3522    4.2822    2.6839 C.ar      1 ACP         0.6898
     30 N3         -0.4501    3.3660    2.2638 N.ar      1 ACP        -0.6800
     31 C4         -0.3487    3.3198    0.9322 C.ar      1 ACP         0.6129
     32 HOG3       -0.4914    0.8769   -4.9827 H         1 ACP         0.4199
     33 H3B1        1.0048   -2.4311   -7.5629 H         1 ACP         0.0672
     34 H3B2        0.6275   -2.5024   -5.8392 H         1 ACP         0.0672
     35 H5'1        1.2153   -0.0781   -2.0454 H         1 ACP         0.0277
     36 H5'2        2.4645   -1.3454   -2.1547 H         1 ACP         0.0277
     37 H4'         3.8050   -0.1388   -0.4008 H         1 ACP         0.1249
     38 H3'         1.6784   -1.7629    0.2714 H         1 ACP         0.0564
     39 HO3'        2.2232   -1.2979    2.3953 H         1 ACP         0.4511
     40 H2'        -0.0011    0.0027    0.0003 H         1 ACP         0.0716
     41 HO2'       -0.6141    0.5574    2.1082 H         1 ACP         0.4454
     42 H1'         1.7826    1.9024    1.6451 H         1 ACP         0.1310
     43 H8          0.6728    2.3873   -1.9272 H         1 ACP         0.3565
     44 HN61       -2.5537    5.7714   -1.2667 H         1 ACP         0.4414
     45 HN62       -3.3283    6.5126    0.1080 H         1 ACP         0.4414
     46 H2         -1.4818    4.3694    3.7565 H         1 ACP         0.0676
     47 H47        -1.0701    4.2005   -2.0743 H         1 ACP         0.5052
@<TRIPOS>BOND
     1    1    2 2
     2    1    3 1
     3    1    4 1
     4    1    8 1
     5    4   32 1
     6    5    6 2
     7    5    7 1
     8    5    8 1
     9    5   12 1
    10    8   33 1
    11    8   34 1
    12    9   10 2
    13    9   11 1
    14    9   12 1
    15    9   13 1
    16   13   14 1
    17   14   15 1
    18   14   35 1
    19   14   36 1
    20   15   16 1
    21   15   17 1
    22   15   37 1
    23   16   21 1
    24   17   18 1
    25   17   19 1
    26   17   38 1
    27   18   39 1
    28   19   20 1
    29   19   21 1
    30   19   40 1
    31   20   41 1
    32   21   22 1
    33   21   42 1
    34   22   23 ar
    35   22   31 ar
    36   23   24 ar
    37   23   43 1
    38   24   25 ar
    39   24   47 1
    40   25   26 ar
    41   25   31 ar
    42   26   27 1
    43   26   28 ar
    44   27   44 1
    45   27   45 1
    46   28   29 ar
    47   29   30 ar
    48   29   46 1
    49   30   31 ar
@<TRIPOS>SUBSTRUCTURE
     1 ACP         1 GROUP 0 A     ****
@<TRIPOS>MOLECULE
[[5-(6-amino-7,8-dihydropurin-8-ylium-9-yl)-3,4-dihydroxy-tetrahydrofuran-2-yl]methoxy-oxido-phosphoryl]oxy-[[hydroxy(oxido)phosphoryl]methyl]phosphinate
   47    49     1     0     0
SMALL
USER_CHARGES

@<TRIPOS>ATOM
      1 PG          4.4673   -0.9070   -6.7860 P.3       1 ACP         1.3755
      2 O1G         4.7822   -0.7292   -5.3190 O.co2     1 ACP        -0.8970
      3 O2G         5.1103   -0.0537   -7.8550 O.co2     1 ACP        -0.8970
      4 O3G         4.6207   -2.4806   -7.1862 O.3       1 ACP        -0.7959
      5 PB          1.4292   -1.8769   -6.1501 P.3       1 ACP         1.5194
      6 O1B         1.7224   -3.2845   -6.6140 O.co2     1 ACP        -0.8958
      7 O2B         0.0612   -1.2507   -6.2951 O.co2     1 ACP        -0.8958
      8 C3B         2.6372   -0.7568   -6.9869 C.3       1 ACP        -0.5612
      9 PA          1.5537   -2.4539   -3.2418 P.3       1 ACP         1.6019
     10 O1A         2.0300   -3.8868   -3.3414 O.co2     1 ACP        -0.9040
     11 O2A         0.1072   -2.1427   -2.9238 O.co2     1 ACP        -0.9040
     12 O3A         1.9587   -1.6787   -4.6209 O.3       1 ACP        -0.8156
     13 O5'         2.5237   -1.6631   -2.1889 O.3       1 ACP        -0.5465
     14 C5'         2.2816   -0.2918   -1.9206 C.3       1 ACP         0.2108
     15 C4'         2.7248    0.0226   -0.4980 C.3       1 ACP         0.0552
     16 O4'         2.4697    1.4219   -0.2462 O.3       1 ACP        -0.3428
     17 C3'         1.9404   -0.7419    0.5596 C.3       1 ACP         0.0750
     18 O3'         2.7418   -0.8086    1.7389 O.3       1 ACP        -0.6066
     19 C2'         0.7477    0.1630    0.7858 C.3       1 ACP         0.1185
     20 O2'         0.1373   -0.0577    2.0407 O.3       1 ACP        -0.5858
     21 C1'         1.3733    1.5427    0.6747 C.3       1 ACP         0.3826
     22 N9          0.4520    2.5240    0.1767 N.pl3     1 ACP        -0.5729
     23 C8          0.1928    2.8484   -1.0815 C.ar      1 ACP         0.3288
     24 N7         -0.7248    3.8048   -1.2110 N.pl3     1 ACP        -0.5338
     25 C5         -1.0765    4.1129    0.0571 C.ar      1 ACP        -0.2581
     26 C6         -1.9614    5.0063    0.5851 C.ar      1 ACP         0.7413
     27 N6         -2.7145    5.8254   -0.2810 N.pl3     1 ACP        -0.9512
     28 N1         -2.1199    5.1113    1.9228 N.ar      1 ACP        -0.7699
     29 C2         -1.3522    4.2822    2.6839 C.ar      1 ACP         0.6898
     30 N3         -0.4501    3.3660    2.2638 N.ar      1 ACP        -0.6800
     31 C4         -0.3487    3.3198    0.9322 C.ar      1 ACP         0.6129
     32 HOG3        5.4929   -2.9118   -7.0625 H         1 ACP         0.4199
     33 H3B1        2.4426   -0.8373   -8.0622 H         1 ACP         0.0672
     34 H3B2        2.3711    0.2612   -6.6813 H         1 ACP         0.0672
     35 H5'1        2.8429    0.3140   -2.6391 H         1 ACP         0.0277
     36 H5'2        1.2125   -0.0906   -2.0420 H         1 ACP         0.0277
     37 H4'         3.8050   -0.1388   -0.4008 H         1 ACP         0.1249
     38 H3'         1.6784   -1.7629    0.2714 H         1 ACP         0.0564
     39 HO3'        2.2232   -1.2979    2.3953 H         1 ACP         0.4511
     40 H2'        -0.0011    0.0027    0.0003 H         1 ACP         0.0716
     41 HO2'       -0.6141    0.5574    2.1082 H         1 ACP         0.4454
     42 H1'         1.7826    1.9024    1.6451 H         1 ACP         0.1310
     43 H8          0.6728    2.3873   -1.9272 H         1 ACP         0.3565
     44 HN61       -2.5537    5.7714   -1.2667 H         1 ACP         0.4414
     45 HN62       -3.3283    6.5126    0.1080 H         1 ACP         0.4414
     46 H2         -1.4818    4.3694    3.7565 H         1 ACP         0.0676
     47 H47        -1.0701    4.2005   -2.0743 H         1 ACP         0.5052
@<TRIPOS>BOND
     1    1    2 2
     2    1    3 1
     3    1    4 1
     4    1    8 1
     5    4   32 1
     6    5    6 2
     7    5    7 1
     8    5    8 1
     9    5   12 1
    10    8   33 1
    11    8   34 1
    12    9   10 2
    13    9   11 1
    14    9   12 1
    15    9   13 1
    16   13   14 1
    17   14   15 1
    18   14   35 1
    19   14   36 1
    20   15   16 1
    21   15   17 1
    22   15   37 1
    23   16   21 1
    24   17   18 1
    25   17   19 1
    26   17   38 1
    27   18   39 1
    28   19   20 1
    29   19   21 1
    30   19   40 1
    31   20   41 1
    32   21   22 1
    33   21   42 1
    34   22   23 ar
    35   22   31 ar
    36   23   24 ar
    37   23   43 1
    38   24   25 ar
    39   24   47 1
    40   25   26 ar
    41   25   31 ar
    42   26   27 1
    43   26   28 ar
    44   27   44 1
    45   27   45 1
    46   28   29 ar
    47   29   30 ar
    48   29   46 1
    49   30   31 ar
@<TRIPOS>SUBSTRUCTURE
     1 ACP         1 GROUP 0 A     ****
@<TRIPOS>MOLECULE
[[5-(6-amino-7,8-dihydropurin-8-ylium-9-yl)-3,4-dihydroxy-tetrahydrofuran-2-yl]methoxy-oxido-phosphoryl]oxy-[[hydroxy(oxido)phosphoryl]methyl]phosphinate
   47    49     1     0     0
SMALL
USER_CHARGES

@<TRIPOS>ATOM
      1 PG          3.9468   -4.5744   -1.2258 P.3       1 ACP         1.3755
      2 O1G         4.0378   -6.0763   -1.0889 O.co2     1 ACP        -0.8970
      3 O2G         2.6726   -3.8821   -1.6517 O.co2     1 ACP        -0.8970
      4 O3G         4.5157   -3.8712    0.1314 O.3       1 ACP        -0.7959
      5 PB          5.5620   -2.2740   -2.8611 P.3       1 ACP         1.5194
      6 O1B         6.7324   -2.2453   -3.8161 O.co2     1 ACP        -0.8958
      7 O2B         5.5410   -1.4567   -1.5899 O.co2     1 ACP        -0.8958
      8 C3B         5.2808   -4.0370   -2.3851 C.3       1 ACP        -0.5612
      9 PA          3.4821   -0.6660   -4.2377 P.3       1 ACP         1.6019
     10 O1A         2.1119   -1.0079   -4.7812 O.co2     1 ACP        -0.9040
     11 O2A         4.4908    0.0668   -5.0956 O.co2     1 ACP        -0.9040
     12 O3A         4.1739   -2.0373   -3.6828 O.3       1 ACP        -0.8156
     13 O5'         3.2883    0.1336   -2.8242 O.3       1 ACP        -0.5465
     14 C5'         2.2816   -0.2918   -1.9206 C.3       1 ACP         0.2108
     15 C4'         2.7248    0.0226   -0.4980 C.3       1 ACP         0.0552
     16 O4'         2.4697    1.4219   -0.2462 O.3       1 ACP        -0.3428
     17 C3'         1.9404   -0.7419    0.5596 C.3       1 ACP         0.0750
     18 O3'         2.7418   -0.8086    1.7389 O.3       1 ACP        -0.6066
     19 C2'         0.7477    0.1630    0.7858 C.3       1 ACP         0.1185
     20 O2'         0.1373   -0.0577    2.0407 O.3       1 ACP        -0.5858
     21 C1'         1.3733    1.5427    0.6747 C.3       1 ACP         0.3826
     22 N9          0.4520    2.5240    0.1767 N.pl3     1 ACP        -0.5729
     23 C8          0.1928    2.8484   -1.0815 C.ar      1 ACP         0.3288
     24 N7         -0.7248    3.8048   -1.2110 N.pl3     1 ACP        -0.5338
     25 C5         -1.0765    4.1129    0.0571 C.ar      1 ACP        -0.2581
     26 C6         -1.9614    5.0063    0.5851 C.ar      1 ACP         0.7413
     27 N6         -2.7145    5.8254   -0.2810 N.pl3     1 ACP        -0.9512
     28 N1         -2.1199    5.1113    1.9228 N.ar      1 ACP        -0.7699
     29 C2         -1.3522    4.2822    2.6839 C.ar      1 ACP         0.6898
     30 N3         -0.4501    3.3660    2.2638 N.ar      1 ACP        -0.6800
     31 C4         -0.3487    3.3198    0.9322 C.ar      1 ACP         0.6129
     32 HOG3        4.0736   -4.0731    0.9834 H         1 ACP         0.4199
     33 H3B1        5.1123   -4.5877   -3.3172 H         1 ACP         0.0672
     34 H3B2        6.2263   -4.3927   -1.9609 H         1 ACP         0.0672
     35 H5'1        1.3500    0.2325   -2.1560 H         1 ACP         0.0277
     36 H5'2        2.1267   -1.3683   -2.0444 H         1 ACP         0.0277
     37 H4'         3.8050   -0.1388   -0.4008 H         1 ACP         0.1249
     38 H3'         1.6784   -1.7629    0.2714 H         1 ACP         0.0564
     39 HO3'        2.2232   -1.2979    2.3953 H         1 ACP         0.4511
     40 H2'        -0.0011    0.0027    0.0003 H         1 ACP         0.0716
     41 HO2'       -0.6141    0.5574    2.1082 H         1 ACP         0.4454
     42 H1'         1.7826    1.9024    1.6451 H         1 ACP         0.1310
     43 H8          0.6728    2.3873   -1.9272 H         1 ACP         0.3565
     44 HN61       -2.5537    5.7714   -1.2667 H         1 ACP         0.4414
     45 HN62       -3.3283    6.5126    0.1080 H         1 ACP         0.4414
     46 H2         -1.4818    4.3694    3.7565 H         1 ACP         0.0676
     47 H47        -1.0701    4.2005   -2.0743 H         1 ACP         0.5052
@<TRIPOS>BOND
     1    1    2 2
     2    1    3 1
     3    1    4 1
     4    1    8 1
     5    4   32 1
     6    5    6 2
     7    5    7 1
     8    5    8 1
     9    5   12 1
    10    8   33 1
    11    8   34 1
    12    9   10 2
    13    9   11 1
    14    9   12 1
    15    9   13 1
    16   13   14 1
    17   14   15 1
    18   14   35 1
    19   14   36 1
    20   15   16 1
    21   15   17 1
    22   15   37 1
    23   16   21 1
    24   17   18 1
    25   17   19 1
    26   17   38 1
    27   18   39 1
    28   19   20 1
    29   19   21 1
    30   19   40 1
    31   20   41 1
    32   21   22 1
    33   21   42 1
    34   22   23 ar
    35   22   31 ar
    36   23   24 ar
    37   23   43 1
    38   24   25 ar
    39   24   47 1
    40   25   26 ar
    41   25   31 ar
    42   26   27 1
    43   26   28 ar
    44   27   44 1
    45   27   45 1
    46   28   29 ar
    47   29   30 ar
    48   29   46 1
    49   30   31 ar
@<TRIPOS>SUBSTRUCTURE
     1 ACP         1 GROUP 0 A     ****
@<TRIPOS>MOLECULE
[[5-(6-amino-7,8-dihydropurin-8-ylium-9-yl)-3,4-dihydroxy-tetrahydrofuran-2-yl]methoxy-oxido-phosphoryl]oxy-[[hydroxy(oxido)phosphoryl]methyl]phosphinate
   47    49     1     0     0
SMALL
USER_CHARGES

@<TRIPOS>ATOM
      1 PG         -0.1528    0.8076   -5.6809 P.3       1 ACP         1.3755
      2 O1G        -0.8941    0.4859   -4.4042 O.co2     1 ACP        -0.8970
      3 O2G        -0.8141    1.5253   -6.8349 O.co2     1 ACP        -0.8970
      4 O3G         1.2539    1.5491   -5.3186 O.3       1 ACP        -0.7959
      5 PB          1.7357   -1.8251   -5.4014 P.3       1 ACP         1.5194
      6 O1B         2.9625   -0.9848   -5.1341 O.co2     1 ACP        -0.8958
      7 O2B         1.8124   -3.1581   -6.1094 O.co2     1 ACP        -0.8958
      8 C3B         0.5397   -0.7736   -6.3385 C.3       1 ACP        -0.5612
      9 PA          1.2676   -2.6330   -2.5845 P.3       1 ACP         1.6019
     10 O1A         1.8014   -4.0298   -2.8163 O.co2     1 ACP        -0.9040
     11 O2A         0.1253   -2.3943   -1.6209 O.co2     1 ACP        -0.9040
     12 O3A         0.8686   -1.9867   -4.0302 O.3       1 ACP        -0.8156
     13 O5'         2.5237   -1.6631   -2.1889 O.3       1 ACP        -0.5465
     14 C5'         2.2816   -0.2918   -1.9206 C.3       1 ACP         0.2108
     15 C4'         2.7248    0.0226   -0.4980 C.3       1 ACP         0.0552
     16 O4'         2.4697    1.4219   -0.2462 O.3       1 ACP        -0.3428
     17 C3'         1.9404   -0.7419    0.5596 C.3       1 ACP         0.0750
     18 O3'         2.7418   -0.8086    1.7389 O.3       1 ACP        -0.6066
     19 C2'         0.7477    0.1630    0.7858 C.3       1 ACP         0.1185
     20 O2'         0.1373   -0.0577    2.0407 O.3       1 ACP        -0.5858
     21 C1'         1.3733    1.5427    0.6747 C.3       1 ACP         0.3826
     22 N9          0.4520    2.5240    0.1767 N.pl3     1 ACP        -0.5729
     23 C8          0.1928    2.8484   -1.0815 C.ar      1 ACP         0.3288
     24 N7         -0.7248    3.8048   -1.2110 N.pl3     1 ACP        -0.5338
     25 C5         -1.0765    4.1129    0.0571 C.ar      1 ACP        -0.2581
     26 C6         -1.9614    5.0063    0.5851 C.ar      1 ACP         0.7413
     27 N6         -2.7145    5.8254   -0.2810 N.pl3     1 ACP        -0.9512
     28 N1         -2.1199    5.1113    1.9228 N.ar      1 ACP        -0.7699
     29 C2         -1.3522    4.2822    2.6839 C.ar      1 ACP         0.6898
     30 N3         -0.4501    3.3660    2.2638 N.ar      1 ACP        -0.6800
     31 C4         -0.3487    3.3198    0.9322 C.ar      1 ACP         0.6129
     32 HOG3        1.2225    2.3967   -4.8259 H         1 ACP         0.4199
     33 H3B1        1.0254   -0.5205   -7.2874 H         1 ACP         0.0672
     34 H3B2       -0.3158   -1.4178   -6.5702 H         1 ACP         0.0672
     35 H5'1        2.8429    0.3140   -2.6391 H         1 ACP         0.0277
     36 H5'2        1.2125   -0.0906   -2.0420 H         1 ACP         0.0277
     37 H4'         3.8050   -0.1388   -0.4008 H         1 ACP         0.1249
     38 H3'         1.6784   -1.7629    0.2714 H         1 ACP         0.0564
     39 HO3'        2.2232   -1.2979    2.3953 H         1 ACP         0.4511
     40 H2'        -0.0011    0.0027    0.0003 H         1 ACP         0.0716
     41 HO2'       -0.6141    0.5574    2.1082 H         1 ACP         0.4454
     42 H1'         1.7826    1.9024    1.6451 H         1 ACP         0.1310
     43 H8          0.6728    2.3873   -1.9272 H         1 ACP         0.3565
     44 HN61       -2.5537    5.7714   -1.2667 H         1 ACP         0.4414
     45 HN62       -3.3283    6.5126    0.1080 H         1 ACP         0.4414
     46 H2         -1.4818    4.3694    3.7565 H         1 ACP         0.0676
     47 H47        -1.0701    4.2005   -2.0743 H         1 ACP         0.5052
@<TRIPOS>BOND
     1    1    2 2
     2    1    3 1
     3    1    4 1
     4    1    8 1
     5    4   32 1
     6    5    6 2
     7    5    7 1
     8    5    8 1
     9    5   12 1
    10    8   33 1
    11    8   34 1
    12    9   10 2
    13    9   11 1
    14    9   12 1
    15    9   13 1
    16   13   14 1
    17   14   15 1
    18   14   35 1
    19   14   36 1
    20   15   16 1
    21   15   17 1
    22   15   37 1
    23   16   21 1
    24   17   18 1
    25   17   19 1
    26   17   38 1
    27   18   39 1
    28   19   20 1
    29   19   21 1
    30   19   40 1
    31   20   41 1
    32   21   22 1
    33   21   42 1
    34   22   23 ar
    35   22   31 ar
    36   23   24 ar
    37   23   43 1
    38   24   25 ar
    39   24   47 1
    40   25   26 ar
    41   25   31 ar
    42   26   27 1
    43   26   28 ar
    44   27   44 1
    45   27   45 1
    46   28   29 ar
    47   29   30 ar
    48   29   46 1
    49   30   31 ar
@<TRIPOS>SUBSTRUCTURE
     1 ACP         1 GROUP 0 A     ****
@<TRIPOS>MOLECULE
[[5-(6-amino-7,8-dihydropurin-8-ylium-9-yl)-3,4-dihydroxy-tetrahydrofuran-2-yl]methoxy-oxido-phosphoryl]oxy-[[hydroxy(oxido)phosphoryl]methyl]phosphinate
   47    49     1     0     0
SMALL
USER_CHARGES

@<TRIPOS>ATOM
      1 PG          7.5093   -1.1511   -2.7925 P.3       1 ACP         1.3755
      2 O1G         6.4336   -1.1394   -1.7316 O.co2     1 ACP        -0.8970
      3 O2G         8.8220   -0.4237   -2.6138 O.co2     1 ACP        -0.8970
      4 O3G         7.8020   -2.6888   -3.2504 O.3       1 ACP        -0.7959
      5 PB          5.3244   -1.3769   -5.1905 P.3       1 ACP         1.5194
      6 O1B         5.7568   -2.7849   -5.5268 O.co2     1 ACP        -0.8958
      7 O2B         4.7951   -0.4259   -6.2392 O.co2     1 ACP        -0.8958
      8 C3B         6.7513   -0.5436   -4.3636 C.3       1 ACP        -0.5612
      9 PA          2.8591   -2.1299   -3.7201 P.3       1 ACP         1.6019
     10 O1A         3.0727   -3.6280   -3.7234 O.co2     1 ACP        -0.9040
     11 O2A         1.8686   -1.4903   -4.6689 O.co2     1 ACP        -0.9040
     12 O3A         4.3077   -1.4018   -3.9162 O.3       1 ACP        -0.8156
     13 O5'         2.5237   -1.6631   -2.1889 O.3       1 ACP        -0.5465
     14 C5'         2.2816   -0.2918   -1.9206 C.3       1 ACP         0.2108
     15 C4'         2.7248    0.0226   -0.4980 C.3       1 ACP         0.0552
     16 O4'         2.4697    1.4219   -0.2462 O.3       1 ACP        -0.3428
     17 C3'         1.9404   -0.7419    0.5596 C.3       1 ACP         0.0750
     18 O3'         2.7418   -0.8086    1.7389 O.3       1 ACP        -0.6066
     19 C2'         0.7477    0.1630    0.7858 C.3       1 ACP         0.1185
     20 O2'         0.1373   -0.0577    2.0407 O.3       1 ACP        -0.5858
     21 C1'         1.3733    1.5427    0.6747 C.3       1 ACP         0.3826
     22 N9          0.4520    2.5240    0.1767 N.pl3     1 ACP        -0.5729
     23 C8          0.1928    2.8484   -1.0815 C.ar      1 ACP         0.3288
     24 N7         -0.7248    3.8048   -1.2110 N.pl3     1 ACP        -0.5338
     25 C5         -1.0765    4.1129    0.0571 C.ar      1 ACP        -0.2581
     26 C6         -1.9614    5.0063    0.5851 C.ar      1 ACP         0.7413
     27 N6         -2.7145    5.8254   -0.2810 N.pl3     1 ACP        -0.9512
     28 N1         -2.1199    5.1113    1.9228 N.ar      1 ACP        -0.7699
     29 C2         -1.3522    4.2822    2.6839 C.ar      1 ACP         0.6898
     30 N3         -0.4501    3.3660    2.2638 N.ar      1 ACP        -0.6800
     31 C4         -0.3487    3.3198    0.9322 C.ar      1 ACP         0.6129
     32 HOG3        8.1101   -3.3280   -2.5731 H         1 ACP         0.4199
     33 H3B1        7.5625   -0.5129   -5.0996 H         1 ACP         0.0672
     34 H3B2        6.4363    0.4896   -4.1803 H         1 ACP         0.0672
     35 H5'1        2.8429    0.3140   -2.6391 H         1 ACP         0.0277
     36 H5'2        1.2125   -0.0906   -2.0420 H         1 ACP         0.0277
     37 H4'         3.8050   -0.1388   -0.4008 H         1 ACP         0.1249
     38 H3'         1.6784   -1.7629    0.2714 H         1 ACP         0.0564
     39 HO3'        3.5554   -1.2733    1.4914 H         1 ACP         0.4511
     40 H2'        -0.0011    0.0027    0.0003 H         1 ACP         0.0716
     41 HO2'       -0.6141    0.5574    2.1082 H         1 ACP         0.4454
     42 H1'         1.7826    1.9024    1.6451 H         1 ACP         0.1310
     43 H8          0.6728    2.3873   -1.9272 H         1 ACP         0.3565
     44 HN61       -2.5537    5.7714   -1.2667 H         1 ACP         0.4414
     45 HN62       -3.3283    6.5126    0.1080 H         1 ACP         0.4414
     46 H2         -1.4818    4.3694    3.7565 H         1 ACP         0.0676
     47 H47        -1.0701    4.2005   -2.0743 H         1 ACP         0.5052
@<TRIPOS>BOND
     1    1    2 2
     2    1    3 1
     3    1    4 1
     4    1    8 1
     5    4   32 1
     6    5    6 2
     7    5    7 1
     8    5    8 1
     9    5   12 1
    10    8   33 1
    11    8   34 1
    12    9   10 2
    13    9   11 1
    14    9   12 1
    15    9   13 1
    16   13   14 1
    17   14   15 1
    18   14   35 1
    19   14   36 1
    20   15   16 1
    21   15   17 1
    22   15   37 1
    23   16   21 1
    24   17   18 1
    25   17   19 1
    26   17   38 1
    27   18   39 1
    28   19   20 1
    29   19   21 1
    30   19   40 1
    31   20   41 1
    32   21   22 1
    33   21   42 1
    34   22   23 ar
    35   22   31 ar
    36   23   24 ar
    37   23   43 1
    38   24   25 ar
    39   24   47 1
    40   25   26 ar
    41   25   31 ar
    42   26   27 1
    43   26   28 ar
    44   27   44 1
    45   27   45 1
    46   28   29 ar
    47   29   30 ar
    48   29   46 1
    49   30   31 ar
@<TRIPOS>SUBSTRUCTURE
     1 ACP         1 GROUP 0 A     ****
@<TRIPOS>MOLECULE
[[5-(6-amino-7,8-dihydropurin-8-ylium-9-yl)-3,4-dihydroxy-tetrahydrofuran-2-yl]methoxy-oxido-phosphoryl]oxy-[[hydroxy(oxido)phosphoryl]methyl]phosphinate
   47    49     1     0     0
SMALL
USER_CHARGES

@<TRIPOS>ATOM
      1 PG          1.2372   -4.1139   -5.2499 P.3       1 ACP         1.3755
      2 O1G         0.1991   -5.1407   -4.8616 O.co2     1 ACP        -0.8970
      3 O2G         2.3914   -3.7553   -4.3424 O.co2     1 ACP        -0.8970
      4 O3G         1.8073   -4.4561   -6.7391 O.3       1 ACP        -0.7959
      5 PB          1.2088   -1.0007   -6.1893 P.3       1 ACP         1.5194
      6 O1B         0.1474    0.0479   -6.4270 O.co2     1 ACP        -0.8958
      7 O2B         2.2100   -1.3874   -7.2534 O.co2     1 ACP        -0.8958
      8 C3B         0.3482   -2.5468   -5.6573 C.3       1 ACP        -0.5612
      9 PA          2.8601    0.6157   -4.3273 P.3       1 ACP         1.6019
     10 O1A         1.9209    1.7951   -4.1977 O.co2     1 ACP        -0.9040
     11 O2A         4.0952    0.7056   -5.1973 O.co2     1 ACP        -0.9040
     12 O3A         1.9919   -0.6863   -4.7944 O.3       1 ACP        -0.8156
     13 O5'         3.2883    0.1336   -2.8242 O.3       1 ACP        -0.5465
     14 C5'         2.2816   -0.2918   -1.9206 C.3       1 ACP         0.2108
     15 C4'         2.7248    0.0226   -0.4980 C.3       1 ACP         0.0552
     16 O4'         2.4697    1.4219   -0.2462 O.3       1 ACP        -0.3428
     17 C3'         1.9404   -0.7419    0.5596 C.3       1 ACP         0.0750
     18 O3'         2.7418   -0.8086    1.7389 O.3       1 ACP        -0.6066
     19 C2'         0.7477    0.1630    0.7858 C.3       1 ACP         0.1185
     20 O2'         0.1373   -0.0577    2.0407 O.3       1 ACP        -0.5858
     21 C1'         1.3733    1.5427    0.6747 C.3       1 ACP         0.3826
     22 N9          0.4520    2.5240    0.1767 N.pl3     1 ACP        -0.5729
     23 C8          0.1928    2.8484   -1.0815 C.ar      1 ACP         0.3288
     24 N7         -0.7248    3.8048   -1.2110 N.pl3     1 ACP        -0.5338
     25 C5         -1.0765    4.1129    0.0571 C.ar      1 ACP        -0.2581
     26 C6         -1.9614    5.0063    0.5851 C.ar      1 ACP         0.7413
     27 N6         -2.7145    5.8254   -0.2810 N.pl3     1 ACP        -0.9512
     28 N1         -2.1199    5.1113    1.9228 N.ar      1 ACP        -0.7699
     29 C2         -1.3522    4.2822    2.6839 C.ar      1 ACP         0.6898
     30 N3         -0.4501    3.3660    2.2638 N.ar      1 ACP        -0.6800
     31 C4         -0.3487    3.3198    0.9322 C.ar      1 ACP         0.6129
     32 HOG3        2.2438   -5.3224   -6.8852 H         1 ACP         0.4199
     33 H3B1       -0.2337   -2.2877   -4.7657 H         1 ACP         0.0672
     34 H3B2       -0.3639   -2.7888   -6.4541 H         1 ACP         0.0672
     35 H5'1        1.3500    0.2325   -2.1560 H         1 ACP         0.0277
     36 H5'2        2.1267   -1.3683   -2.0444 H         1 ACP         0.0277
     37 H4'         3.8050   -0.1388   -0.4008 H         1 ACP         0.1249
     38 H3'         1.6784   -1.7629    0.2714 H         1 ACP         0.0564
     39 HO3'        2.2232   -1.2979    2.3953 H         1 ACP         0.4511
     40 H2'        -0.0011    0.0027    0.0003 H         1 ACP         0.0716
     41 HO2'       -0.6141    0.5574    2.1082 H         1 ACP         0.4454
     42 H1'         1.7826    1.9024    1.6451 H         1 ACP         0.1310
     43 H8          0.6728    2.3873   -1.9272 H         1 ACP         0.3565
     44 HN61       -2.5537    5.7714   -1.2667 H         1 ACP         0.4414
     45 HN62       -3.3283    6.5126    0.1080 H         1 ACP         0.4414
     46 H2         -1.4818    4.3694    3.7565 H         1 ACP         0.0676
     47 H47        -1.0701    4.2005   -2.0743 H         1 ACP         0.5052
@<TRIPOS>BOND
     1    1    2 2
     2    1    3 1
     3    1    4 1
     4    1    8 1
     5    4   32 1
     6    5    6 2
     7    5    7 1
     8    5    8 1
     9    5   12 1
    10    8   33 1
    11    8   34 1
    12    9   10 2
    13    9   11 1
    14    9   12 1
    15    9   13 1
    16   13   14 1
    17   14   15 1
    18   14   35 1
    19   14   36 1
    20   15   16 1
    21   15   17 1
    22   15   37 1
    23   16   21 1
    24   17   18 1
    25   17   19 1
    26   17   38 1
    27   18   39 1
    28   19   20 1
    29   19   21 1
    30   19   40 1
    31   20   41 1
    32   21   22 1
    33   21   42 1
    34   22   23 ar
    35   22   31 ar
    36   23   24 ar
    37   23   43 1
    38   24   25 ar
    39   24   47 1
    40   25   26 ar
    41   25   31 ar
    42   26   27 1
    43   26   28 ar
    44   27   44 1
    45   27   45 1
    46   28   29 ar
    47   29   30 ar
    48   29   46 1
    49   30   31 ar
@<TRIPOS>SUBSTRUCTURE
     1 ACP         1 GROUP 0 A     ****
@<TRIPOS>MOLECULE
[[5-(6-amino-7,8-dihydropurin-8-ylium-9-yl)-3,4-dihydroxy-tetrahydrofuran-2-yl]methoxy-oxido-phosphoryl]oxy-[[hydroxy(oxido)phosphoryl]methyl]phosphinate
   47    49     1     0     0
SMALL
USER_CHARGES

@<TRIPOS>ATOM
      1 PG          7.4498   -1.2755   -0.6110 P.3       1 ACP         1.3755
      2 O1G         7.7938   -1.9049    0.7188 O.co2     1 ACP        -0.8970
      3 O2G         6.6227   -0.0147   -0.7133 O.co2     1 ACP        -0.8970
      4 O3G         8.8086   -1.1033   -1.4965 O.3       1 ACP        -0.7959
      5 PB          6.0159   -2.2560   -3.3602 P.3       1 ACP         1.5194
      6 O1B         5.4034   -3.5429   -3.8614 O.co2     1 ACP        -0.8958
      7 O2B         7.1242   -1.5488   -4.1058 O.co2     1 ACP        -0.8958
      8 C3B         6.6203   -2.5647   -1.6416 C.3       1 ACP        -0.5612
      9 PA          3.9534   -0.2075   -3.9573 P.3       1 ACP         1.6019
     10 O1A         3.0635   -1.0663   -4.8291 O.co2     1 ACP        -0.9040
     11 O2A         4.8781    0.8194   -4.5746 O.co2     1 ACP        -0.9040
     12 O3A         4.8377   -1.1891   -2.9974 O.3       1 ACP        -0.8156
     13 O5'         3.0198    0.5138   -2.8245 O.3       1 ACP        -0.5465
     14 C5'         2.2816   -0.2918   -1.9206 C.3       1 ACP         0.2108
     15 C4'         2.7248    0.0226   -0.4980 C.3       1 ACP         0.0552
     16 O4'         2.4697    1.4219   -0.2462 O.3       1 ACP        -0.3428
     17 C3'         1.9404   -0.7419    0.5596 C.3       1 ACP         0.0750
     18 O3'         2.7418   -0.8086    1.7389 O.3       1 ACP        -0.6066
     19 C2'         0.7477    0.1630    0.7858 C.3       1 ACP         0.1185
     20 O2'         0.1373   -0.0577    2.0407 O.3       1 ACP        -0.5858
     21 C1'         1.3733    1.5427    0.6747 C.3       1 ACP         0.3826
     22 N9          0.4520    2.5240    0.1767 N.pl3     1 ACP        -0.5729
     23 C8          0.1928    2.8484   -1.0815 C.ar      1 ACP         0.3288
     24 N7         -0.7248    3.8048   -1.2110 N.pl3     1 ACP        -0.5338
     25 C5         -1.0765    4.1129    0.0571 C.ar      1 ACP        -0.2581
     26 C6         -1.9614    5.0063    0.5851 C.ar      1 ACP         0.7413
     27 N6         -2.7145    5.8254   -0.2810 N.pl3     1 ACP        -0.9512
     28 N1         -2.1199    5.1113    1.9228 N.ar      1 ACP        -0.7699
     29 C2         -1.3522    4.2822    2.6839 C.ar      1 ACP         0.6898
     30 N3         -0.4501    3.3660    2.2638 N.ar      1 ACP        -0.6800
     31 C4         -0.3487    3.3198    0.9322 C.ar      1 ACP         0.6129
     32 HOG3        9.5343   -0.5500   -1.1369 H         1 ACP         0.4199
     33 H3B1        5.7535   -2.9036   -1.0634 H         1 ACP         0.0672
     34 H3B2        7.3176   -3.4070   -1.7105 H         1 ACP         0.0672
     35 H5'1        1.2153   -0.0781   -2.0454 H         1 ACP         0.0277
     36 H5'2        2.4645   -1.3454   -2.1547 H         1 ACP         0.0277
     37 H4'         3.8050   -0.1388   -0.4008 H         1 ACP         0.1249
     38 H3'         1.6784   -1.7629    0.2714 H         1 ACP         0.0564
     39 HO3'        2.2232   -1.2979    2.3953 H         1 ACP         0.4511
     40 H2'        -0.0011    0.0027    0.0003 H         1 ACP         0.0716
     41 HO2'       -0.6141    0.5574    2.1082 H         1 ACP         0.4454
     42 H1'         1.7826    1.9024    1.6451 H         1 ACP         0.1310
     43 H8          0.6728    2.3873   -1.9272 H         1 ACP         0.3565
     44 HN61       -2.5537    5.7714   -1.2667 H         1 ACP         0.4414
     45 HN62       -3.3283    6.5126    0.1080 H         1 ACP         0.4414
     46 H2         -1.4818    4.3694    3.7565 H         1 ACP         0.0676
     47 H47        -1.0701    4.2005   -2.0743 H         1 ACP         0.5052
@<TRIPOS>BOND
     1    1    2 2
     2    1    3 1
     3    1    4 1
     4    1    8 1
     5    4   32 1
     6    5    6 2
     7    5    7 1
     8    5    8 1
     9    5   12 1
    10    8   33 1
    11    8   34 1
    12    9   10 2
    13    9   11 1
    14    9   12 1
    15    9   13 1
    16   13   14 1
    17   14   15 1
    18   14   35 1
    19   14   36 1
    20   15   16 1
    21   15   17 1
    22   15   37 1
    23   16   21 1
    24   17   18 1
    25   17   19 1
    26   17   38 1
    27   18   39 1
    28   19   20 1
    29   19   21 1
    30   19   40 1
    31   20   41 1
    32   21   22 1
    33   21   42 1
    34   22   23 ar
    35   22   31 ar
    36   23   24 ar
    37   23   43 1
    38   24   25 ar
    39   24   47 1
    40   25   26 ar
    41   25   31 ar
    42   26   27 1
    43   26   28 ar
    44   27   44 1
    45   27   45 1
    46   28   29 ar
    47   29   30 ar
    48   29   46 1
    49   30   31 ar
@<TRIPOS>SUBSTRUCTURE
     1 ACP         1 GROUP 0 A     ****
@<TRIPOS>MOLECULE
[[5-(6-amino-7,8-dihydropurin-8-ylium-9-yl)-3,4-dihydroxy-tetrahydrofuran-2-yl]methoxy-oxido-phosphoryl]oxy-[[hydroxy(oxido)phosphoryl]methyl]phosphinate
   47    49     1     0     0
SMALL
USER_CHARGES

@<TRIPOS>ATOM
      1 PG          1.4080   -3.0633   -7.3067 P.3       1 ACP         1.3755
      2 O1G         0.4152   -4.1952   -7.4331 O.co2     1 ACP        -0.8970
      3 O2G         2.8401   -3.2942   -6.8827 O.co2     1 ACP        -0.8970
      4 O3G         1.3860   -2.1686   -8.6701 O.3       1 ACP        -0.7959
      5 PB          1.5457   -0.2441   -5.6916 P.3       1 ACP         1.5194
      6 O1B         0.6408    0.5026   -4.7396 O.co2     1 ACP        -0.8958
      7 O2B         2.0601    0.3798   -6.9686 O.co2     1 ACP        -0.8958
      8 C3B         0.6862   -1.8129   -6.1544 C.3       1 ACP        -0.5612
      9 PA          3.9534   -0.2075   -3.9573 P.3       1 ACP         1.6019
     10 O1A         4.6225    0.8729   -4.7788 O.co2     1 ACP        -0.9040
     11 O2A         4.7732   -1.3027   -3.3100 O.co2     1 ACP        -0.9040
     12 O3A         2.7896   -0.9020   -4.8683 O.3       1 ACP        -0.8156
     13 O5'         3.0198    0.5138   -2.8245 O.3       1 ACP        -0.5465
     14 C5'         2.2816   -0.2918   -1.9206 C.3       1 ACP         0.2108
     15 C4'         2.7248    0.0226   -0.4980 C.3       1 ACP         0.0552
     16 O4'         2.4697    1.4219   -0.2462 O.3       1 ACP        -0.3428
     17 C3'         1.9404   -0.7419    0.5596 C.3       1 ACP         0.0750
     18 O3'         2.7418   -0.8086    1.7389 O.3       1 ACP        -0.6066
     19 C2'         0.7477    0.1630    0.7858 C.3       1 ACP         0.1185
     20 O2'         0.1373   -0.0577    2.0407 O.3       1 ACP        -0.5858
     21 C1'         1.3733    1.5427    0.6747 C.3       1 ACP         0.3826
     22 N9          0.4520    2.5240    0.1767 N.pl3     1 ACP        -0.5729
     23 C8          0.1928    2.8484   -1.0815 C.ar      1 ACP         0.3288
     24 N7         -0.7248    3.8048   -1.2110 N.pl3     1 ACP        -0.5338
     25 C5         -1.0765    4.1129    0.0571 C.ar      1 ACP        -0.2581
     26 C6         -1.9614    5.0063    0.5851 C.ar      1 ACP         0.7413
     27 N6         -2.7145    5.8254   -0.2810 N.pl3     1 ACP        -0.9512
     28 N1         -2.1199    5.1113    1.9228 N.ar      1 ACP        -0.7699
     29 C2         -1.3522    4.2822    2.6839 C.ar      1 ACP         0.6898
     30 N3         -0.4501    3.3660    2.2638 N.ar      1 ACP        -0.6800
     31 C4         -0.3487    3.3198    0.9322 C.ar      1 ACP         0.6129
     32 HOG3        1.6095   -2.6051   -9.5197 H         1 ACP         0.4199
     33 H3B1        0.4841   -2.3446   -5.2180 H         1 ACP         0.0672
     34 H3B2       -0.2800   -1.5174   -6.5783 H         1 ACP         0.0672
     35 H5'1        1.2153   -0.0781   -2.0454 H         1 ACP         0.0277
     36 H5'2        2.4645   -1.3454   -2.1547 H         1 ACP         0.0277
     37 H4'         3.8050   -0.1388   -0.4008 H         1 ACP         0.1249
     38 H3'         1.6784   -1.7629    0.2714 H         1 ACP         0.0564
     39 HO3'        2.2232   -1.2979    2.3953 H         1 ACP         0.4511
     40 H2'        -0.0011    0.0027    0.0003 H         1 ACP         0.0716
     41 HO2'       -0.6141    0.5574    2.1082 H         1 ACP         0.4454
     42 H1'         1.7826    1.9024    1.6451 H         1 ACP         0.1310
     43 H8          0.6728    2.3873   -1.9272 H         1 ACP         0.3565
     44 HN61       -2.5537    5.7714   -1.2667 H         1 ACP         0.4414
     45 HN62       -3.3283    6.5126    0.1080 H         1 ACP         0.4414
     46 H2         -1.4818    4.3694    3.7565 H         1 ACP         0.0676
     47 H47        -1.0701    4.2005   -2.0743 H         1 ACP         0.5052
@<TRIPOS>BOND
     1    1    2 2
     2    1    3 1
     3    1    4 1
     4    1    8 1
     5    4   32 1
     6    5    6 2
     7    5    7 1
     8    5    8 1
     9    5   12 1
    10    8   33 1
    11    8   34 1
    12    9   10 2
    13    9   11 1
    14    9   12 1
    15    9   13 1
    16   13   14 1
    17   14   15 1
    18   14   35 1
    19   14   36 1
    20   15   16 1
    21   15   17 1
    22   15   37 1
    23   16   21 1
    24   17   18 1
    25   17   19 1
    26   17   38 1
    27   18   39 1
    28   19   20 1
    29   19   21 1
    30   19   40 1
    31   20   41 1
    32   21   22 1
    33   21   42 1
    34   22   23 ar
    35   22   31 ar
    36   23   24 ar
    37   23   43 1
    38   24   25 ar
    39   24   47 1
    40   25   26 ar
    41   25   31 ar
    42   26   27 1
    43   26   28 ar
    44   27   44 1
    45   27   45 1
    46   28   29 ar
    47   29   30 ar
    48   29   46 1
    49   30   31 ar
@<TRIPOS>SUBSTRUCTURE
     1 ACP         1 GROUP 0 A     ****
@<TRIPOS>MOLECULE
[[5-(6-amino-7,8-dihydropurin-8-ylium-9-yl)-3,4-dihydroxy-tetrahydrofuran-2-yl]methoxy-oxido-phosphoryl]oxy-[[hydroxy(oxido)phosphoryl]methyl]phosphinate
   47    49     1     0     0
SMALL
USER_CHARGES

@<TRIPOS>ATOM
      1 PG          3.8246   -4.7482   -1.6567 P.3       1 ACP         1.3755
      2 O1G         3.4368   -3.4182   -1.0540 O.co2     1 ACP        -0.8970
      3 O2G         4.3663   -5.8830   -0.8182 O.co2     1 ACP        -0.8970
      4 O3G         2.6027   -5.2989   -2.5860 O.3       1 ACP        -0.7959
      5 PB          4.6852   -3.3686   -4.4730 P.3       1 ACP         1.5194
      6 O1B         3.5263   -4.0061   -5.2032 O.co2     1 ACP        -0.8958
      7 O2B         6.0021   -3.0758   -5.1545 O.co2     1 ACP        -0.8958
      8 C3B         5.0522   -4.4177   -2.9969 C.3       1 ACP        -0.5612
      9 PA          3.4821   -0.6660   -4.2377 P.3       1 ACP         1.6019
     10 O1A         2.1119   -1.0079   -4.7812 O.co2     1 ACP        -0.9040
     11 O2A         4.4908    0.0668   -5.0956 O.co2     1 ACP        -0.9040
     12 O3A         4.1739   -2.0373   -3.6828 O.3       1 ACP        -0.8156
     13 O5'         3.2883    0.1336   -2.8242 O.3       1 ACP        -0.5465
     14 C5'         2.2816   -0.2918   -1.9206 C.3       1 ACP         0.2108
     15 C4'         2.7248    0.0226   -0.4980 C.3       1 ACP         0.0552
     16 O4'         2.4697    1.4219   -0.2462 O.3       1 ACP        -0.3428
     17 C3'         1.9404   -0.7419    0.5596 C.3       1 ACP         0.0750
     18 O3'         2.7418   -0.8086    1.7389 O.3       1 ACP        -0.6066
     19 C2'         0.7477    0.1630    0.7858 C.3       1 ACP         0.1185
     20 O2'         0.1373   -0.0577    2.0407 O.3       1 ACP        -0.5858
     21 C1'         1.3733    1.5427    0.6747 C.3       1 ACP         0.3826
     22 N9          0.4520    2.5240    0.1767 N.pl3     1 ACP        -0.5729
     23 C8          0.1928    2.8484   -1.0815 C.ar      1 ACP         0.3288
     24 N7         -0.7248    3.8048   -1.2110 N.pl3     1 ACP        -0.5338
     25 C5         -1.0765    4.1129    0.0571 C.ar      1 ACP        -0.2581
     26 C6         -1.9614    5.0063    0.5851 C.ar      1 ACP         0.7413
     27 N6         -2.7145    5.8254   -0.2810 N.pl3     1 ACP        -0.9512
     28 N1         -2.1199    5.1113    1.9228 N.ar      1 ACP        -0.7699
     29 C2         -1.3522    4.2822    2.6839 C.ar      1 ACP         0.6898
     30 N3         -0.4501    3.3660    2.2638 N.ar      1 ACP        -0.6800
     31 C4         -0.3487    3.3198    0.9322 C.ar      1 ACP         0.6129
     32 HOG3        1.7307   -5.4582   -2.1660 H         1 ACP         0.4199
     33 H3B1        5.3543   -5.3988   -3.3801 H         1 ACP         0.0672
     34 H3B2        5.9287   -3.9702   -2.5153 H         1 ACP         0.0672
     35 H5'1        1.3500    0.2325   -2.1560 H         1 ACP         0.0277
     36 H5'2        2.1267   -1.3683   -2.0444 H         1 ACP         0.0277
     37 H4'         3.8050   -0.1388   -0.4008 H         1 ACP         0.1249
     38 H3'         1.6784   -1.7629    0.2714 H         1 ACP         0.0564
     39 HO3'        2.2232   -1.2979    2.3953 H         1 ACP         0.4511
     40 H2'        -0.0011    0.0027    0.0003 H         1 ACP         0.0716
     41 HO2'       -0.1563   -0.9855    2.0596 H         1 ACP         0.4454
     42 H1'         1.7826    1.9024    1.6451 H         1 ACP         0.1310
     43 H8          0.6728    2.3873   -1.9272 H         1 ACP         0.3565
     44 HN61       -2.5537    5.7714   -1.2667 H         1 ACP         0.4414
     45 HN62       -3.3283    6.5126    0.1080 H         1 ACP         0.4414
     46 H2         -1.4818    4.3694    3.7565 H         1 ACP         0.0676
     47 H47        -1.0701    4.2005   -2.0743 H         1 ACP         0.5052
@<TRIPOS>BOND
     1    1    2 2
     2    1    3 1
     3    1    4 1
     4    1    8 1
     5    4   32 1
     6    5    6 2
     7    5    7 1
     8    5    8 1
     9    5   12 1
    10    8   33 1
    11    8   34 1
    12    9   10 2
    13    9   11 1
    14    9   12 1
    15    9   13 1
    16   13   14 1
    17   14   15 1
    18   14   35 1
    19   14   36 1
    20   15   16 1
    21   15   17 1
    22   15   37 1
    23   16   21 1
    24   17   18 1
    25   17   19 1
    26   17   38 1
    27   18   39 1
    28   19   20 1
    29   19   21 1
    30   19   40 1
    31   20   41 1
    32   21   22 1
    33   21   42 1
    34   22   23 ar
    35   22   31 ar
    36   23   24 ar
    37   23   43 1
    38   24   25 ar
    39   24   47 1
    40   25   26 ar
    41   25   31 ar
    42   26   27 1
    43   26   28 ar
    44   27   44 1
    45   27   45 1
    46   28   29 ar
    47   29   30 ar
    48   29   46 1
    49   30   31 ar
@<TRIPOS>SUBSTRUCTURE
     1 ACP         1 GROUP 0 A     ****
@<TRIPOS>MOLECULE
[[5-(6-amino-7,8-dihydropurin-8-ylium-9-yl)-3,4-dihydroxy-tetrahydrofuran-2-yl]methoxy-oxido-phosphoryl]oxy-[[hydroxy(oxido)phosphoryl]methyl]phosphinate
   47    49     1     0     0
SMALL
USER_CHARGES

@<TRIPOS>ATOM
      1 PG          0.1002    2.2420   -6.1216 P.3       1 ACP         1.3755
      2 O1G        -1.3041    2.7939   -6.2001 O.co2     1 ACP        -0.8970
      3 O2G         1.2252    2.7837   -6.9732 O.co2     1 ACP        -0.8970
      4 O3G         0.5774    2.1947   -4.5628 O.3       1 ACP        -0.7959
      5 PB          1.4818   -0.6857   -6.4298 P.3       1 ACP         1.5194
      6 O1B         2.4135   -0.1933   -7.5126 O.co2     1 ACP        -0.8958
      7 O2B         0.9758   -2.1093   -6.3902 O.co2     1 ACP        -0.8958
      8 C3B         0.0035    0.4228   -6.4272 C.3       1 ACP        -0.5612
      9 PA          3.4821   -0.6660   -4.2377 P.3       1 ACP         1.6019
     10 O1A         4.6119   -0.0112   -5.0023 O.co2     1 ACP        -0.9040
     11 O2A         3.4912   -2.1564   -3.9749 O.co2     1 ACP        -0.9040
     12 O3A         2.0730   -0.2777   -4.9662 O.3       1 ACP        -0.8156
     13 O5'         3.2883    0.1336   -2.8242 O.3       1 ACP        -0.5465
     14 C5'         2.2816   -0.2918   -1.9206 C.3       1 ACP         0.2108
     15 C4'         2.7248    0.0226   -0.4980 C.3       1 ACP         0.0552
     16 O4'         2.4697    1.4219   -0.2462 O.3       1 ACP        -0.3428
     17 C3'         1.9404   -0.7419    0.5596 C.3       1 ACP         0.0750
     18 O3'         2.7418   -0.8086    1.7389 O.3       1 ACP        -0.6066
     19 C2'         0.7477    0.1630    0.7858 C.3       1 ACP         0.1185
     20 O2'         0.1373   -0.0577    2.0407 O.3       1 ACP        -0.5858
     21 C1'         1.3733    1.5427    0.6747 C.3       1 ACP         0.3826
     22 N9          0.4520    2.5240    0.1767 N.pl3     1 ACP        -0.5729
     23 C8          0.1928    2.8484   -1.0815 C.ar      1 ACP         0.3288
     24 N7         -0.7248    3.8048   -1.2110 N.pl3     1 ACP        -0.5338
     25 C5         -1.0765    4.1129    0.0571 C.ar      1 ACP        -0.2581
     26 C6         -1.9614    5.0063    0.5851 C.ar      1 ACP         0.7413
     27 N6         -2.7145    5.8254   -0.2810 N.pl3     1 ACP        -0.9512
     28 N1         -2.1199    5.1113    1.9228 N.ar      1 ACP        -0.7699
     29 C2         -1.3522    4.2822    2.6839 C.ar      1 ACP         0.6898
     30 N3         -0.4501    3.3660    2.2638 N.ar      1 ACP        -0.6800
     31 C4         -0.3487    3.3198    0.9322 C.ar      1 ACP         0.6129
     32 HOG3        0.6091    3.0350   -4.0576 H         1 ACP         0.4199
     33 H3B1       -0.4753    0.3047   -7.4056 H         1 ACP         0.0672
     34 H3B2       -0.6818    0.0150   -5.6759 H         1 ACP         0.0672
     35 H5'1        1.3500    0.2325   -2.1560 H         1 ACP         0.0277
     36 H5'2        2.1267   -1.3683   -2.0444 H         1 ACP         0.0277
     37 H4'         3.8050   -0.1388   -0.4008 H         1 ACP         0.1249
     38 H3'         1.6784   -1.7629    0.2714 H         1 ACP         0.0564
     39 HO3'        3.5554   -1.2733    1.4914 H         1 ACP         0.4511
     40 H2'        -0.0011    0.0027    0.0003 H         1 ACP         0.0716
     41 HO2'       -0.6141    0.5574    2.1082 H         1 ACP         0.4454
     42 H1'         1.7826    1.9024    1.6451 H         1 ACP         0.1310
     43 H8          0.6728    2.3873   -1.9272 H         1 ACP         0.3565
     44 HN61       -2.5537    5.7714   -1.2667 H         1 ACP         0.4414
     45 HN62       -3.3283    6.5126    0.1080 H         1 ACP         0.4414
     46 H2         -1.4818    4.3694    3.7565 H         1 ACP         0.0676
     47 H47        -1.0701    4.2005   -2.0743 H         1 ACP         0.5052
@<TRIPOS>BOND
     1    1    2 2
     2    1    3 1
     3    1    4 1
     4    1    8 1
     5    4   32 1
     6    5    6 2
     7    5    7 1
     8    5    8 1
     9    5   12 1
    10    8   33 1
    11    8   34 1
    12    9   10 2
    13    9   11 1
    14    9   12 1
    15    9   13 1
    16   13   14 1
    17   14   15 1
    18   14   35 1
    19   14   36 1
    20   15   16 1
    21   15   17 1
    22   15   37 1
    23   16   21 1
    24   17   18 1
    25   17   19 1
    26   17   38 1
    27   18   39 1
    28   19   20 1
    29   19   21 1
    30   19   40 1
    31   20   41 1
    32   21   22 1
    33   21   42 1
    34   22   23 ar
    35   22   31 ar
    36   23   24 ar
    37   23   43 1
    38   24   25 ar
    39   24   47 1
    40   25   26 ar
    41   25   31 ar
    42   26   27 1
    43   26   28 ar
    44   27   44 1
    45   27   45 1
    46   28   29 ar
    47   29   30 ar
    48   29   46 1
    49   30   31 ar
@<TRIPOS>SUBSTRUCTURE
     1 ACP         1 GROUP 0 A     ****
@<TRIPOS>MOLECULE
[[5-(6-amino-7,8-dihydropurin-8-ylium-9-yl)-3,4-dihydroxy-tetrahydrofuran-2-yl]methoxy-oxido-phosphoryl]oxy-[[hydroxy(oxido)phosphoryl]methyl]phosphinate
   47    49     1     0     0
SMALL
USER_CHARGES

@<TRIPOS>ATOM
      1 PG          0.7491    4.1646   -4.4933 P.3       1 ACP         1.3755
      2 O1G        -0.3773    5.0864   -4.0881 O.co2     1 ACP        -0.8970
      3 O2G         1.9113    4.6380   -5.3357 O.co2     1 ACP        -0.8970
      4 O3G         1.3176    3.3914   -3.1746 O.3       1 ACP        -0.7959
      5 PB          0.9951    1.3104   -6.0322 P.3       1 ACP         1.5194
      6 O1B         1.9390    1.8846   -7.0629 O.co2     1 ACP        -0.8958
      7 O2B         0.0321    0.1920   -6.3581 O.co2     1 ACP        -0.8958
      8 C3B         0.0001    2.7116   -5.3534 C.3       1 ACP        -0.5612
      9 PA          3.0653   -0.0868   -4.4294 P.3       1 ACP         1.6019
     10 O1A         4.2789    0.4515   -5.1554 O.co2     1 ACP        -0.9040
     11 O2A         2.5799   -1.4982   -4.6803 O.co2     1 ACP        -0.9040
     12 O3A         1.8195    0.9401   -4.6753 O.3       1 ACP        -0.8156
     13 O5'         3.2883    0.1336   -2.8242 O.3       1 ACP        -0.5465
     14 C5'         2.2816   -0.2918   -1.9206 C.3       1 ACP         0.2108
     15 C4'         2.7248    0.0226   -0.4980 C.3       1 ACP         0.0552
     16 O4'         2.4697    1.4219   -0.2462 O.3       1 ACP        -0.3428
     17 C3'         1.9404   -0.7419    0.5596 C.3       1 ACP         0.0750
     18 O3'         2.7418   -0.8086    1.7389 O.3       1 ACP        -0.6066
     19 C2'         0.7477    0.1630    0.7858 C.3       1 ACP         0.1185
     20 O2'         0.1373   -0.0577    2.0407 O.3       1 ACP        -0.5858
     21 C1'         1.3733    1.5427    0.6747 C.3       1 ACP         0.3826
     22 N9          0.4520    2.5240    0.1767 N.pl3     1 ACP        -0.5729
     23 C8         -0.5899    2.3466   -0.6224 C.ar      1 ACP         0.3288
     24 N7         -1.2514    3.4689   -0.8989 N.pl3     1 ACP        -0.5338
     25 C5         -0.5826    4.4323   -0.2272 C.ar      1 ACP        -0.2581
     26 C6         -0.7636    5.7789   -0.1086 C.ar      1 ACP         0.7413
     27 N6         -1.8382    6.3927   -0.7843 N.pl3     1 ACP        -0.9512
     28 N1          0.0741    6.5233    0.6461 N.ar      1 ACP        -0.7699
     29 C2          1.0845    5.8486    1.2626 C.ar      1 ACP         0.6898
     30 N3          1.3516    4.5236    1.2116 N.ar      1 ACP        -0.6800
     31 C4          0.4827    3.8546    0.4481 C.ar      1 ACP         0.6129
     32 HOG3        1.6840    3.9278   -2.4396 H         1 ACP         0.4199
     33 H3B1       -0.5754    3.1191   -6.1920 H         1 ACP         0.0672
     34 H3B2       -0.7141    2.2663   -4.6519 H         1 ACP         0.0672
     35 H5'1        1.3500    0.2325   -2.1560 H         1 ACP         0.0277
     36 H5'2        2.1267   -1.3683   -2.0444 H         1 ACP         0.0277
     37 H4'         3.8050   -0.1388   -0.4008 H         1 ACP         0.1249
     38 H3'         1.6784   -1.7629    0.2714 H         1 ACP         0.0564
     39 HO3'        3.5554   -1.2733    1.4914 H         1 ACP         0.4511
     40 H2'        -0.0011    0.0027    0.0003 H         1 ACP         0.0716
     41 HO2'       -0.1563   -0.9855    2.0596 H         1 ACP         0.4454
     42 H1'         1.7826    1.9024    1.6451 H         1 ACP         0.1310
     43 H8         -0.8833    1.3888   -1.0158 H         1 ACP         0.3565
     44 HN61       -2.4225    5.8385   -1.3773 H         1 ACP         0.4414
     45 HN62       -1.9421    7.3862   -0.7348 H         1 ACP         0.4414
     46 H2          1.7546    6.4491    1.8670 H         1 ACP         0.0676
     47 H47        -2.0705    3.5612   -1.4834 H         1 ACP         0.5052
@<TRIPOS>BOND
     1    1    2 2
     2    1    3 1
     3    1    4 1
     4    1    8 1
     5    4   32 1
     6    5    6 2
     7    5    7 1
     8    5    8 1
     9    5   12 1
    10    8   33 1
    11    8   34 1
    12    9   10 2
    13    9   11 1
    14    9   12 1
    15    9   13 1
    16   13   14 1
    17   14   15 1
    18   14   35 1
    19   14   36 1
    20   15   16 1
    21   15   17 1
    22   15   37 1
    23   16   21 1
    24   17   18 1
    25   17   19 1
    26   17   38 1
    27   18   39 1
    28   19   20 1
    29   19   21 1
    30   19   40 1
    31   20   41 1
    32   21   22 1
    33   21   42 1
    34   22   23 ar
    35   22   31 ar
    36   23   24 ar
    37   23   43 1
    38   24   25 ar
    39   24   47 1
    40   25   26 ar
    41   25   31 ar
    42   26   27 1
    43   26   28 ar
    44   27   44 1
    45   27   45 1
    46   28   29 ar
    47   29   30 ar
    48   29   46 1
    49   30   31 ar
@<TRIPOS>SUBSTRUCTURE
     1 ACP         1 GROUP 0 A     ****
@<TRIPOS>MOLECULE
[[5-(6-amino-7,8-dihydropurin-8-ylium-9-yl)-3,4-dihydroxy-tetrahydrofuran-2-yl]methoxy-oxido-phosphoryl]oxy-[[hydroxy(oxido)phosphoryl]methyl]phosphinate
   47    49     1     0     0
SMALL
USER_CHARGES

@<TRIPOS>ATOM
      1 PG         -5.9261   -4.7919    0.9605 P.3       1 ACP         1.3755
      2 O1G        -6.9708   -3.7398    0.6700 O.co2     1 ACP        -0.8970
      3 O2G        -6.0344   -6.2011    0.4252 O.co2     1 ACP        -0.8970
      4 O3G        -4.4471   -4.1962    0.6176 O.3       1 ACP        -0.7959
      5 PB         -4.5772   -6.0728    3.6279 P.3       1 ACP         1.5194
      6 O1B        -4.9639   -7.4745    3.2178 O.co2     1 ACP        -0.8958
      7 O2B        -4.4851   -5.6554    5.0776 O.co2     1 ACP        -0.8958
      8 C3B        -5.7479   -4.9108    2.7953 C.3       1 ACP        -0.5612
      9 PA         -1.7212   -6.2756    2.8475 P.3       1 ACP         1.6019
     10 O1A        -1.7898   -7.6341    2.1847 O.co2     1 ACP        -0.9040
     11 O2A        -1.1337   -6.1229    4.2339 O.co2     1 ACP        -0.9040
     12 O3A        -3.2188   -5.6244    2.8457 O.3       1 ACP        -0.8156
     13 O5'        -0.9728   -5.2427    1.8237 O.3       1 ACP        -0.5465
     14 C5'        -0.7840   -3.8935    2.2172 C.3       1 ACP         0.2108
     15 C4'        -0.0724   -3.1466    1.1027 C.3       1 ACP         0.0552
     16 O4'        -0.8674   -3.1929   -0.0945 O.3       1 ACP        -0.3428
     17 C3'         0.1338   -1.6715    1.4027 C.3       1 ACP         0.0750
     18 O3'         1.2893   -1.4445    2.1808 O.3       1 ACP        -0.6066
     19 C2'         0.2158   -1.0724    0.0128 C.3       1 ACP         0.1185
     20 O2'         1.5141   -1.2448   -0.5513 O.3       1 ACP        -0.5858
     21 C1'        -0.7897   -1.9176   -0.7583 C.3       1 ACP         0.3826
     22 N9         -2.1040   -1.3333   -0.7704 N.pl3     1 ACP        -0.5729
     23 C8         -3.0822   -1.4850    0.1102 C.ar      1 ACP         0.3288
     24 N7         -4.1844   -0.7999   -0.1888 N.pl3     1 ACP        -0.5338
     25 C5         -3.8875   -0.1651   -1.3445 C.ar      1 ACP        -0.2581
     26 C6         -4.5941    0.6799   -2.1486 C.ar      1 ACP         0.7413
     27 N6         -5.9138    1.0274   -1.7939 N.pl3     1 ACP        -0.9512
     28 N1         -4.0421    1.1824   -3.2748 N.ar      1 ACP        -0.7699
     29 C2         -2.7637    0.7937   -3.5405 C.ar      1 ACP         0.6898
     30 N3         -1.9788   -0.0343   -2.8139 N.ar      1 ACP        -0.6800
     31 C4         -2.5915   -0.4902   -1.7174 C.ar      1 ACP         0.6129
     32 HOG3       -4.2615   -3.9047   -0.3004 H         1 ACP         0.4199
     33 H3B1       -6.7460   -5.1447    3.1823 H         1 ACP         0.0672
     34 H3B2       -5.4858   -3.9079    3.1501 H         1 ACP         0.0672
     35 H5'1       -1.7614   -3.4427    2.4167 H         1 ACP         0.0277
     36 H5'2       -0.1870   -3.8723    3.1344 H         1 ACP         0.0277
     37 H4'         0.8886   -3.6447    0.8779 H         1 ACP         0.1249
     38 H3'        -0.7373   -1.2359    1.9870 H         1 ACP         0.0564
     39 HO3'        1.3408   -0.4870    2.3219 H         1 ACP         0.4511
     40 H2'        -0.0384   -0.0310    0.0096 H         1 ACP         0.0716
     41 HO2'        2.1463   -0.7958    0.0370 H         1 ACP         0.4454
     42 H1'        -0.4769   -2.1002   -1.8093 H         1 ACP         0.1310
     43 H8         -3.0031   -2.1011    0.9891 H         1 ACP         0.3565
     44 HN61       -6.4144    1.6837   -2.3586 H         1 ACP         0.4414
     45 HN62       -6.2940    0.6861   -0.9341 H         1 ACP         0.4414
     46 H2         -2.3243    1.1986   -4.4449 H         1 ACP         0.0676
     47 H47        -5.0436   -0.7722    0.3425 H         1 ACP         0.5052
@<TRIPOS>BOND
     1    1    2 2
     2    1    3 1
     3    1    4 1
     4    1    8 1
     5    4   32 1
     6    5    6 2
     7    5    7 1
     8    5    8 1
     9    5   12 1
    10    8   33 1
    11    8   34 1
    12    9   10 2
    13    9   11 1
    14    9   12 1
    15    9   13 1
    16   13   14 1
    17   14   15 1
    18   14   35 1
    19   14   36 1
    20   15   16 1
    21   15   17 1
    22   15   37 1
    23   16   21 1
    24   17   18 1
    25   17   19 1
    26   17   38 1
    27   18   39 1
    28   19   20 1
    29   19   21 1
    30   19   40 1
    31   20   41 1
    32   21   22 1
    33   21   42 1
    34   22   23 ar
    35   22   31 ar
    36   23   24 ar
    37   23   43 1
    38   24   25 ar
    39   24   47 1
    40   25   26 ar
    41   25   31 ar
    42   26   27 1
    43   26   28 ar
    44   27   44 1
    45   27   45 1
    46   28   29 ar
    47   29   30 ar
    48   29   46 1
    49   30   31 ar
@<TRIPOS>SUBSTRUCTURE
     1 ACP         1 GROUP 0 A     ****
@<TRIPOS>MOLECULE
[[5-(6-amino-7,8-dihydropurin-8-ylium-9-yl)-3,4-dihydroxy-tetrahydrofuran-2-yl]methoxy-oxido-phosphoryl]oxy-[[hydroxy(oxido)phosphoryl]methyl]phosphinate
   47    49     1     0     0
SMALL
USER_CHARGES

@<TRIPOS>ATOM
      1 PG          2.1683   -4.2301   -4.3190 P.3       1 ACP         1.3755
      2 O1G         2.1247   -5.6511   -4.8304 O.co2     1 ACP        -0.8970
      3 O2G         0.9824   -3.5834   -3.6410 O.co2     1 ACP        -0.8970
      4 O3G         3.4960   -4.0277   -3.3937 O.3       1 ACP        -0.7959
      5 PB          2.8430   -1.3106   -5.5828 P.3       1 ACP         1.5194
      6 O1B         1.5054   -0.7543   -5.1539 O.co2     1 ACP        -0.8958
      7 O2B         3.5525   -0.8295   -6.8275 O.co2     1 ACP        -0.8958
      8 C3B         2.6573   -3.1431   -5.7303 C.3       1 ACP        -0.5612
      9 PA          4.4357   -0.0473   -3.4208 P.3       1 ACP         1.6019
     10 O1A         5.0077    1.0009   -4.3502 O.co2     1 ACP        -0.9040
     11 O2A         5.2684   -0.6124   -2.2904 O.co2     1 ACP        -0.9040
     12 O3A         3.8786   -1.2888   -4.3238 O.3       1 ACP        -0.8156
     13 O5'         3.0198    0.5138   -2.8245 O.3       1 ACP        -0.5465
     14 C5'         2.2816   -0.2918   -1.9206 C.3       1 ACP         0.2108
     15 C4'         2.7248    0.0226   -0.4980 C.3       1 ACP         0.0552
     16 O4'         2.4697    1.4219   -0.2462 O.3       1 ACP        -0.3428
     17 C3'         1.9404   -0.7419    0.5596 C.3       1 ACP         0.0750
     18 O3'         2.7418   -0.8086    1.7389 O.3       1 ACP        -0.6066
     19 C2'         0.7477    0.1630    0.7858 C.3       1 ACP         0.1185
     20 O2'         0.1373   -0.0577    2.0407 O.3       1 ACP        -0.5858
     21 C1'         1.3733    1.5427    0.6747 C.3       1 ACP         0.3826
     22 N9          0.4520    2.5240    0.1767 N.pl3     1 ACP        -0.5729
     23 C8          0.1928    2.8484   -1.0815 C.ar      1 ACP         0.3288
     24 N7         -0.7248    3.8048   -1.2110 N.pl3     1 ACP        -0.5338
     25 C5         -1.0765    4.1129    0.0571 C.ar      1 ACP        -0.2581
     26 C6         -1.9614    5.0063    0.5851 C.ar      1 ACP         0.7413
     27 N6         -2.7145    5.8254   -0.2810 N.pl3     1 ACP        -0.9512
     28 N1         -2.1199    5.1113    1.9228 N.ar      1 ACP        -0.7699
     29 C2         -1.3522    4.2822    2.6839 C.ar      1 ACP         0.6898
     30 N3         -0.4501    3.3660    2.2638 N.ar      1 ACP        -0.6800
     31 C4         -0.3487    3.3198    0.9322 C.ar      1 ACP         0.6129
     32 HOG3        3.5980   -4.5858   -2.5936 H         1 ACP         0.4199
     33 H3B1        1.9168   -3.3181   -6.5186 H         1 ACP         0.0672
     34 H3B2        3.6196   -3.5184   -6.0958 H         1 ACP         0.0672
     35 H5'1        1.2153   -0.0781   -2.0454 H         1 ACP         0.0277
     36 H5'2        2.4645   -1.3454   -2.1547 H         1 ACP         0.0277
     37 H4'         3.8050   -0.1388   -0.4008 H         1 ACP         0.1249
     38 H3'         1.6784   -1.7629    0.2714 H         1 ACP         0.0564
     39 HO3'        2.2232   -1.2979    2.3953 H         1 ACP         0.4511
     40 H2'        -0.0011    0.0027    0.0003 H         1 ACP         0.0716
     41 HO2'       -0.6141    0.5574    2.1082 H         1 ACP         0.4454
     42 H1'         1.7826    1.9024    1.6451 H         1 ACP         0.1310
     43 H8          0.6728    2.3873   -1.9272 H         1 ACP         0.3565
     44 HN61       -2.5537    5.7714   -1.2667 H         1 ACP         0.4414
     45 HN62       -3.3283    6.5126    0.1080 H         1 ACP         0.4414
     46 H2         -1.4818    4.3694    3.7565 H         1 ACP         0.0676
     47 H47        -1.0701    4.2005   -2.0743 H         1 ACP         0.5052
@<TRIPOS>BOND
     1    1    2 2
     2    1    3 1
     3    1    4 1
     4    1    8 1
     5    4   32 1
     6    5    6 2
     7    5    7 1
     8    5    8 1
     9    5   12 1
    10    8   33 1
    11    8   34 1
    12    9   10 2
    13    9   11 1
    14    9   12 1
    15    9   13 1
    16   13   14 1
    17   14   15 1
    18   14   35 1
    19   14   36 1
    20   15   16 1
    21   15   17 1
    22   15   37 1
    23   16   21 1
    24   17   18 1
    25   17   19 1
    26   17   38 1
    27   18   39 1
    28   19   20 1
    29   19   21 1
    30   19   40 1
    31   20   41 1
    32   21   22 1
    33   21   42 1
    34   22   23 ar
    35   22   31 ar
    36   23   24 ar
    37   23   43 1
    38   24   25 ar
    39   24   47 1
    40   25   26 ar
    41   25   31 ar
    42   26   27 1
    43   26   28 ar
    44   27   44 1
    45   27   45 1
    46   28   29 ar
    47   29   30 ar
    48   29   46 1
    49   30   31 ar
@<TRIPOS>SUBSTRUCTURE
     1 ACP         1 GROUP 0 A     ****
@<TRIPOS>MOLECULE
[[5-(6-amino-7,8-dihydropurin-8-ylium-9-yl)-3,4-dihydroxy-tetrahydrofuran-2-yl]methoxy-oxido-phosphoryl]oxy-[[hydroxy(oxido)phosphoryl]methyl]phosphinate
   47    49     1     0     0
SMALL
USER_CHARGES

@<TRIPOS>ATOM
      1 PG          3.4777   -4.3859   -3.9499 P.3       1 ACP         1.3755
      2 O1G         4.3356   -5.5854   -3.6212 O.co2     1 ACP        -0.8970
      3 O2G         2.0128   -4.5170   -4.2982 O.co2     1 ACP        -0.8970
      4 O3G         3.6574   -3.2562   -2.7875 O.3       1 ACP        -0.7959
      5 PB          3.6071   -1.9329   -6.0810 P.3       1 ACP         1.5194
      6 O1B         2.2415   -2.2678   -6.6338 O.co2     1 ACP        -0.8958
      7 O2B         4.6943   -1.3247   -6.9368 O.co2     1 ACP        -0.8958
      8 C3B         4.2949   -3.4771   -5.3350 C.3       1 ACP        -0.5612
      9 PA          2.7389    0.3751   -4.4298 P.3       1 ACP         1.6019
     10 O1A         1.2481    0.2227   -4.6393 O.co2     1 ACP        -0.9040
     11 O2A         3.5164    1.4419   -5.1701 O.co2     1 ACP        -0.9040
     12 O3A         3.4492   -1.0690   -4.7073 O.3       1 ACP        -0.8156
     13 O5'         3.0198    0.5138   -2.8245 O.3       1 ACP        -0.5465
     14 C5'         2.2816   -0.2918   -1.9206 C.3       1 ACP         0.2108
     15 C4'         2.7248    0.0226   -0.4980 C.3       1 ACP         0.0552
     16 O4'         2.4697    1.4219   -0.2462 O.3       1 ACP        -0.3428
     17 C3'         1.9404   -0.7419    0.5596 C.3       1 ACP         0.0750
     18 O3'         2.7418   -0.8086    1.7389 O.3       1 ACP        -0.6066
     19 C2'         0.7477    0.1630    0.7858 C.3       1 ACP         0.1185
     20 O2'         0.1373   -0.0577    2.0407 O.3       1 ACP        -0.5858
     21 C1'         1.3733    1.5427    0.6747 C.3       1 ACP         0.3826
     22 N9          0.4520    2.5240    0.1767 N.pl3     1 ACP        -0.5729
     23 C8          0.1928    2.8484   -1.0815 C.ar      1 ACP         0.3288
     24 N7         -0.7248    3.8048   -1.2110 N.pl3     1 ACP        -0.5338
     25 C5         -1.0765    4.1129    0.0571 C.ar      1 ACP        -0.2581
     26 C6         -1.9614    5.0063    0.5851 C.ar      1 ACP         0.7413
     27 N6         -2.7145    5.8254   -0.2810 N.pl3     1 ACP        -0.9512
     28 N1         -2.1199    5.1113    1.9228 N.ar      1 ACP        -0.7699
     29 C2         -1.3522    4.2822    2.6839 C.ar      1 ACP         0.6898
     30 N3         -0.4501    3.3660    2.2638 N.ar      1 ACP        -0.6800
     31 C4         -0.3487    3.3198    0.9322 C.ar      1 ACP         0.6129
     32 HOG3        3.4179   -3.4912   -1.8658 H         1 ACP         0.4199
     33 H3B1        4.3966   -4.1990   -6.1530 H         1 ACP         0.0672
     34 H3B2        5.3048   -3.2263   -4.9922 H         1 ACP         0.0672
     35 H5'1        1.2153   -0.0781   -2.0454 H         1 ACP         0.0277
     36 H5'2        2.4645   -1.3454   -2.1547 H         1 ACP         0.0277
     37 H4'         3.8050   -0.1388   -0.4008 H         1 ACP         0.1249
     38 H3'         1.6784   -1.7629    0.2714 H         1 ACP         0.0564
     39 HO3'        2.2232   -1.2979    2.3953 H         1 ACP         0.4511
     40 H2'        -0.0011    0.0027    0.0003 H         1 ACP         0.0716
     41 HO2'       -0.1563   -0.9855    2.0596 H         1 ACP         0.4454
     42 H1'         1.7826    1.9024    1.6451 H         1 ACP         0.1310
     43 H8          0.6728    2.3873   -1.9272 H         1 ACP         0.3565
     44 HN61       -2.5537    5.7714   -1.2667 H         1 ACP         0.4414
     45 HN62       -3.3283    6.5126    0.1080 H         1 ACP         0.4414
     46 H2         -1.4818    4.3694    3.7565 H         1 ACP         0.0676
     47 H47        -1.0701    4.2005   -2.0743 H         1 ACP         0.5052
@<TRIPOS>BOND
     1    1    2 2
     2    1    3 1
     3    1    4 1
     4    1    8 1
     5    4   32 1
     6    5    6 2
     7    5    7 1
     8    5    8 1
     9    5   12 1
    10    8   33 1
    11    8   34 1
    12    9   10 2
    13    9   11 1
    14    9   12 1
    15    9   13 1
    16   13   14 1
    17   14   15 1
    18   14   35 1
    19   14   36 1
    20   15   16 1
    21   15   17 1
    22   15   37 1
    23   16   21 1
    24   17   18 1
    25   17   19 1
    26   17   38 1
    27   18   39 1
    28   19   20 1
    29   19   21 1
    30   19   40 1
    31   20   41 1
    32   21   22 1
    33   21   42 1
    34   22   23 ar
    35   22   31 ar
    36   23   24 ar
    37   23   43 1
    38   24   25 ar
    39   24   47 1
    40   25   26 ar
    41   25   31 ar
    42   26   27 1
    43   26   28 ar
    44   27   44 1
    45   27   45 1
    46   28   29 ar
    47   29   30 ar
    48   29   46 1
    49   30   31 ar
@<TRIPOS>SUBSTRUCTURE
     1 ACP         1 GROUP 0 A     ****
@<TRIPOS>MOLECULE
[[5-(6-amino-7,8-dihydropurin-8-ylium-9-yl)-3,4-dihydroxy-tetrahydrofuran-2-yl]methoxy-oxido-phosphoryl]oxy-[[hydroxy(oxido)phosphoryl]methyl]phosphinate
   47    49     1     0     0
SMALL
USER_CHARGES

@<TRIPOS>ATOM
      1 PG         -1.3216   -0.4318   -4.7967 P.3       1 ACP         1.3755
      2 O1G        -1.5881    0.3597   -3.5375 O.co2     1 ACP        -0.8970
      3 O2G        -0.7401   -1.8263   -4.7612 O.co2     1 ACP        -0.8970
      4 O3G        -2.6574   -0.4273   -5.7324 O.3       1 ACP        -0.7959
      5 PB          1.4479    1.1717   -5.3743 P.3       1 ACP         1.5194
      6 O1B         1.2787    2.0218   -4.1368 O.co2     1 ACP        -0.8958
      7 O2B         2.1387    1.6871   -6.6159 O.co2     1 ACP        -0.8958
      8 C3B        -0.2321    0.5930   -5.8807 C.3       1 ACP        -0.5612
      9 PA          3.4821   -0.6660   -4.2377 P.3       1 ACP         1.6019
     10 O1A         4.6119   -0.0112   -5.0023 O.co2     1 ACP        -0.9040
     11 O2A         3.4912   -2.1564   -3.9749 O.co2     1 ACP        -0.9040
     12 O3A         2.0730   -0.2777   -4.9662 O.3       1 ACP        -0.8156
     13 O5'         3.2883    0.1336   -2.8242 O.3       1 ACP        -0.5465
     14 C5'         2.2816   -0.2918   -1.9206 C.3       1 ACP         0.2108
     15 C4'         2.7248    0.0226   -0.4980 C.3       1 ACP         0.0552
     16 O4'         2.4697    1.4219   -0.2462 O.3       1 ACP        -0.3428
     17 C3'         1.9404   -0.7419    0.5596 C.3       1 ACP         0.0750
     18 O3'         2.7418   -0.8086    1.7389 O.3       1 ACP        -0.6066
     19 C2'         0.7477    0.1630    0.7858 C.3       1 ACP         0.1185
     20 O2'         0.1373   -0.0577    2.0407 O.3       1 ACP        -0.5858
     21 C1'         1.3733    1.5427    0.6747 C.3       1 ACP         0.3826
     22 N9          0.4520    2.5240    0.1767 N.pl3     1 ACP        -0.5729
     23 C8         -0.2172    2.5216   -0.9668 C.ar      1 ACP         0.3288
     24 N7         -1.0011    3.5855   -1.1321 N.pl3     1 ACP        -0.5338
     25 C5         -0.8184    4.3200   -0.0123 C.ar      1 ACP        -0.2581
     26 C6         -1.3349    5.5079    0.4144 C.ar      1 ACP         0.7413
     27 N6         -2.2567    6.1930   -0.4036 N.pl3     1 ACP        -0.9512
     28 N1         -0.9716    6.0291    1.6069 N.ar      1 ACP        -0.7699
     29 C2         -0.0765    5.3009    2.3312 C.ar      1 ACP         0.6898
     30 N3          0.4933    4.1191    2.0023 N.ar      1 ACP        -0.6800
     31 C4          0.0865    3.6675    0.8123 C.ar      1 ACP         0.6129
     32 HOG3       -3.4852   -0.8067   -5.3677 H         1 ACP         0.4199
     33 H3B1       -0.8089    1.4911   -6.1281 H         1 ACP         0.0672
     34 H3B2       -0.0927    0.0275   -6.8087 H         1 ACP         0.0672
     35 H5'1        1.3500    0.2325   -2.1560 H         1 ACP         0.0277
     36 H5'2        2.1267   -1.3683   -2.0444 H         1 ACP         0.0277
     37 H4'         3.8050   -0.1388   -0.4008 H         1 ACP         0.1249
     38 H3'         1.6784   -1.7629    0.2714 H         1 ACP         0.0564
     39 HO3'        2.2232   -1.2979    2.3953 H         1 ACP         0.4511
     40 H2'        -0.0011    0.0027    0.0003 H         1 ACP         0.0716
     41 HO2'       -0.6141    0.5574    2.1082 H         1 ACP         0.4454
     42 H1'         1.7826    1.9024    1.6451 H         1 ACP         0.1310
     43 H8         -0.1423    1.7373   -1.6999 H         1 ACP         0.3565
     44 HN61       -2.4811    5.8206   -1.3042 H         1 ACP         0.4414
     45 HN62       -2.5986    7.0863   -0.1113 H         1 ACP         0.4414
     46 H2          0.2128    5.7222    3.2871 H         1 ACP         0.0676
     47 H47        -1.5947    3.7835   -1.9255 H         1 ACP         0.5052
@<TRIPOS>BOND
     1    1    2 2
     2    1    3 1
     3    1    4 1
     4    1    8 1
     5    4   32 1
     6    5    6 2
     7    5    7 1
     8    5    8 1
     9    5   12 1
    10    8   33 1
    11    8   34 1
    12    9   10 2
    13    9   11 1
    14    9   12 1
    15    9   13 1
    16   13   14 1
    17   14   15 1
    18   14   35 1
    19   14   36 1
    20   15   16 1
    21   15   17 1
    22   15   37 1
    23   16   21 1
    24   17   18 1
    25   17   19 1
    26   17   38 1
    27   18   39 1
    28   19   20 1
    29   19   21 1
    30   19   40 1
    31   20   41 1
    32   21   22 1
    33   21   42 1
    34   22   23 ar
    35   22   31 ar
    36   23   24 ar
    37   23   43 1
    38   24   25 ar
    39   24   47 1
    40   25   26 ar
    41   25   31 ar
    42   26   27 1
    43   26   28 ar
    44   27   44 1
    45   27   45 1
    46   28   29 ar
    47   29   30 ar
    48   29   46 1
    49   30   31 ar
@<TRIPOS>SUBSTRUCTURE
     1 ACP         1 GROUP 0 A     ****
@<TRIPOS>MOLECULE
[[5-(6-amino-7,8-dihydropurin-8-ylium-9-yl)-3,4-dihydroxy-tetrahydrofuran-2-yl]methoxy-oxido-phosphoryl]oxy-[[hydroxy(oxido)phosphoryl]methyl]phosphinate
   47    49     1     0     0
SMALL
USER_CHARGES

@<TRIPOS>ATOM
      1 PG          0.4265    0.7527   -6.0514 P.3       1 ACP         1.3755
      2 O1G         0.1335    1.4466   -7.3612 O.co2     1 ACP        -0.8970
      3 O2G         1.5354    1.2085   -5.1312 O.co2     1 ACP        -0.8970
      4 O3G        -0.9550    0.6003   -5.1981 O.3       1 ACP        -0.7959
      5 PB          1.1090   -2.2866   -5.1176 P.3       1 ACP         1.5194
      6 O1B         1.2707   -3.6202   -5.8089 O.co2     1 ACP        -0.8958
      7 O2B         0.1303   -2.0815   -3.9842 O.co2     1 ACP        -0.8958
      8 C3B         0.7134   -1.0349   -6.4179 C.3       1 ACP        -0.5612
      9 PA          3.5286   -2.0718   -3.4129 P.3       1 ACP         1.6019
     10 O1A         4.6988   -1.1125   -3.4065 O.co2     1 ACP        -0.9040
     11 O2A         3.7579   -3.5677   -3.3967 O.co2     1 ACP        -0.9040
     12 O3A         2.5709   -1.7089   -4.6849 O.3       1 ACP        -0.8156
     13 O5'         2.5237   -1.6631   -2.1889 O.3       1 ACP        -0.5465
     14 C5'         2.2816   -0.2918   -1.9206 C.3       1 ACP         0.2108
     15 C4'         2.7248    0.0226   -0.4980 C.3       1 ACP         0.0552
     16 O4'         2.4697    1.4219   -0.2462 O.3       1 ACP        -0.3428
     17 C3'         1.9404   -0.7419    0.5596 C.3       1 ACP         0.0750
     18 O3'         2.7418   -0.8086    1.7389 O.3       1 ACP        -0.6066
     19 C2'         0.7477    0.1630    0.7858 C.3       1 ACP         0.1185
     20 O2'         0.1373   -0.0577    2.0407 O.3       1 ACP        -0.5858
     21 C1'         1.3733    1.5427    0.6747 C.3       1 ACP         0.3826
     22 N9          0.4520    2.5240    0.1767 N.pl3     1 ACP        -0.5729
     23 C8          0.1928    2.8484   -1.0815 C.ar      1 ACP         0.3288
     24 N7         -0.7248    3.8048   -1.2110 N.pl3     1 ACP        -0.5338
     25 C5         -1.0765    4.1129    0.0571 C.ar      1 ACP        -0.2581
     26 C6         -1.9614    5.0063    0.5851 C.ar      1 ACP         0.7413
     27 N6         -2.7145    5.8254   -0.2810 N.pl3     1 ACP        -0.9512
     28 N1         -2.1199    5.1113    1.9228 N.ar      1 ACP        -0.7699
     29 C2         -1.3522    4.2822    2.6839 C.ar      1 ACP         0.6898
     30 N3         -0.4501    3.3660    2.2638 N.ar      1 ACP        -0.6800
     31 C4         -0.3487    3.3198    0.9322 C.ar      1 ACP         0.6129
     32 HOG3       -1.4424    1.4139   -4.9479 H         1 ACP         0.4199
     33 H3B1        1.5353   -1.0679   -7.1416 H         1 ACP         0.0672
     34 H3B2       -0.1861   -1.3984   -6.9271 H         1 ACP         0.0672
     35 H5'1        2.8429    0.3140   -2.6391 H         1 ACP         0.0277
     36 H5'2        1.2125   -0.0906   -2.0420 H         1 ACP         0.0277
     37 H4'         3.8050   -0.1388   -0.4008 H         1 ACP         0.1249
     38 H3'         1.6784   -1.7629    0.2714 H         1 ACP         0.0564
     39 HO3'        2.2232   -1.2979    2.3953 H         1 ACP         0.4511
     40 H2'        -0.0011    0.0027    0.0003 H         1 ACP         0.0716
     41 HO2'       -0.6141    0.5574    2.1082 H         1 ACP         0.4454
     42 H1'         1.7826    1.9024    1.6451 H         1 ACP         0.1310
     43 H8          0.6728    2.3873   -1.9272 H         1 ACP         0.3565
     44 HN61       -2.5537    5.7714   -1.2667 H         1 ACP         0.4414
     45 HN62       -3.3283    6.5126    0.1080 H         1 ACP         0.4414
     46 H2         -1.4818    4.3694    3.7565 H         1 ACP         0.0676
     47 H47        -1.0701    4.2005   -2.0743 H         1 ACP         0.5052
@<TRIPOS>BOND
     1    1    2 2
     2    1    3 1
     3    1    4 1
     4    1    8 1
     5    4   32 1
     6    5    6 2
     7    5    7 1
     8    5    8 1
     9    5   12 1
    10    8   33 1
    11    8   34 1
    12    9   10 2
    13    9   11 1
    14    9   12 1
    15    9   13 1
    16   13   14 1
    17   14   15 1
    18   14   35 1
    19   14   36 1
    20   15   16 1
    21   15   17 1
    22   15   37 1
    23   16   21 1
    24   17   18 1
    25   17   19 1
    26   17   38 1
    27   18   39 1
    28   19   20 1
    29   19   21 1
    30   19   40 1
    31   20   41 1
    32   21   22 1
    33   21   42 1
    34   22   23 ar
    35   22   31 ar
    36   23   24 ar
    37   23   43 1
    38   24   25 ar
    39   24   47 1
    40   25   26 ar
    41   25   31 ar
    42   26   27 1
    43   26   28 ar
    44   27   44 1
    45   27   45 1
    46   28   29 ar
    47   29   30 ar
    48   29   46 1
    49   30   31 ar
@<TRIPOS>SUBSTRUCTURE
     1 ACP         1 GROUP 0 A     ****
@<TRIPOS>MOLECULE
[[5-(6-amino-7,8-dihydropurin-8-ylium-9-yl)-3,4-dihydroxy-tetrahydrofuran-2-yl]methoxy-oxido-phosphoryl]oxy-[[hydroxy(oxido)phosphoryl]methyl]phosphinate
   47    49     1     0     0
SMALL
USER_CHARGES

@<TRIPOS>ATOM
      1 PG         -1.3216   -0.4318   -4.7967 P.3       1 ACP         1.3755
      2 O1G        -0.5856   -1.7155   -4.4917 O.co2     1 ACP        -0.8970
      3 O2G        -2.7035   -0.4238   -5.4087 O.co2     1 ACP        -0.8970
      4 O3G        -1.3101    0.5262   -3.4768 O.3       1 ACP        -0.7959
      5 PB          1.4479    1.1717   -5.3743 P.3       1 ACP         1.5194
      6 O1B         1.2787    2.0218   -4.1368 O.co2     1 ACP        -0.8958
      7 O2B         2.1387    1.6871   -6.6159 O.co2     1 ACP        -0.8958
      8 C3B        -0.2321    0.5930   -5.8807 C.3       1 ACP        -0.5612
      9 PA          3.4821   -0.6660   -4.2377 P.3       1 ACP         1.6019
     10 O1A         4.6119   -0.0112   -5.0023 O.co2     1 ACP        -0.9040
     11 O2A         3.4912   -2.1564   -3.9749 O.co2     1 ACP        -0.9040
     12 O3A         2.0730   -0.2777   -4.9662 O.3       1 ACP        -0.8156
     13 O5'         3.2883    0.1336   -2.8242 O.3       1 ACP        -0.5465
     14 C5'         2.2816   -0.2918   -1.9206 C.3       1 ACP         0.2108
     15 C4'         2.7248    0.0226   -0.4980 C.3       1 ACP         0.0552
     16 O4'         2.4697    1.4219   -0.2462 O.3       1 ACP        -0.3428
     17 C3'         1.9404   -0.7419    0.5596 C.3       1 ACP         0.0750
     18 O3'         2.7418   -0.8086    1.7389 O.3       1 ACP        -0.6066
     19 C2'         0.7477    0.1630    0.7858 C.3       1 ACP         0.1185
     20 O2'         0.1373   -0.0577    2.0407 O.3       1 ACP        -0.5858
     21 C1'         1.3733    1.5427    0.6747 C.3       1 ACP         0.3826
     22 N9          0.4520    2.5240    0.1767 N.pl3     1 ACP        -0.5729
     23 C8          0.5305    3.2394   -0.9358 C.ar      1 ACP         0.3288
     24 N7         -0.4966    4.0680   -1.1145 N.pl3     1 ACP        -0.5338
     25 C5         -1.2879    3.8664   -0.0375 C.ar      1 ACP        -0.2581
     26 C6         -2.4754    4.4084    0.3577 C.ar      1 ACP         0.7413
     27 N6         -3.0892    5.3882   -0.4495 N.pl3     1 ACP        -0.9512
     28 N1         -3.0632    4.0158    1.5092 N.ar      1 ACP        -0.7699
     29 C2         -2.4008    3.0654    2.2262 C.ar      1 ACP         0.6898
     30 N3         -1.2259    2.4663    1.9260 N.ar      1 ACP        -0.6800
     31 C4         -0.7062    2.9047    0.7757 C.ar      1 ACP         0.6129
     32 HOG3       -1.7213    0.1908   -2.6518 H         1 ACP         0.4199
     33 H3B1       -0.8089    1.4911   -6.1281 H         1 ACP         0.0672
     34 H3B2       -0.0927    0.0275   -6.8087 H         1 ACP         0.0672
     35 H5'1        1.3500    0.2325   -2.1560 H         1 ACP         0.0277
     36 H5'2        2.1267   -1.3683   -2.0444 H         1 ACP         0.0277
     37 H4'         3.8050   -0.1388   -0.4008 H         1 ACP         0.1249
     38 H3'         1.6784   -1.7629    0.2714 H         1 ACP         0.0564
     39 HO3'        2.2232   -1.2979    2.3953 H         1 ACP         0.4511
     40 H2'        -0.0011    0.0027    0.0003 H         1 ACP         0.0716
     41 HO2'       -0.1563   -0.9855    2.0596 H         1 ACP         0.4454
     42 H1'         1.7826    1.9024    1.6451 H         1 ACP         0.1310
     43 H8          1.3437    3.1645   -1.6367 H         1 ACP         0.3565
     44 HN61       -2.6210    5.7042   -1.2748 H         1 ACP         0.4414
     45 HN62       -3.9356    5.8187   -0.1356 H         1 ACP         0.4414
     46 H2         -2.8752    2.7532    3.1495 H         1 ACP         0.0676
     47 H47        -0.6372    4.7004   -1.8900 H         1 ACP         0.5052
@<TRIPOS>BOND
     1    1    2 2
     2    1    3 1
     3    1    4 1
     4    1    8 1
     5    4   32 1
     6    5    6 2
     7    5    7 1
     8    5    8 1
     9    5   12 1
    10    8   33 1
    11    8   34 1
    12    9   10 2
    13    9   11 1
    14    9   12 1
    15    9   13 1
    16   13   14 1
    17   14   15 1
    18   14   35 1
    19   14   36 1
    20   15   16 1
    21   15   17 1
    22   15   37 1
    23   16   21 1
    24   17   18 1
    25   17   19 1
    26   17   38 1
    27   18   39 1
    28   19   20 1
    29   19   21 1
    30   19   40 1
    31   20   41 1
    32   21   22 1
    33   21   42 1
    34   22   23 ar
    35   22   31 ar
    36   23   24 ar
    37   23   43 1
    38   24   25 ar
    39   24   47 1
    40   25   26 ar
    41   25   31 ar
    42   26   27 1
    43   26   28 ar
    44   27   44 1
    45   27   45 1
    46   28   29 ar
    47   29   30 ar
    48   29   46 1
    49   30   31 ar
@<TRIPOS>SUBSTRUCTURE
     1 ACP         1 GROUP 0 A     ****
@<TRIPOS>MOLECULE
[[5-(6-amino-7,8-dihydropurin-8-ylium-9-yl)-3,4-dihydroxy-tetrahydrofuran-2-yl]methoxy-oxido-phosphoryl]oxy-[[hydroxy(oxido)phosphoryl]methyl]phosphinate
   47    49     1     0     0
SMALL
USER_CHARGES

@<TRIPOS>ATOM
      1 PG         -1.3288   -1.3352   -4.5948 P.3       1 ACP         1.3755
      2 O1G        -2.5178   -1.9343   -5.3090 O.co2     1 ACP        -0.8970
      3 O2G        -1.4087   -0.8566   -3.1634 O.co2     1 ACP        -0.8970
      4 O3G        -0.0417   -2.3226   -4.7630 O.3       1 ACP        -0.7959
      5 PB          0.7311    1.1214   -5.1398 P.3       1 ACP         1.5194
      6 O1B         0.4103    1.7589   -3.8082 O.co2     1 ACP        -0.8958
      7 O2B         1.1129    1.9393   -6.3521 O.co2     1 ACP        -0.8958
      8 C3B        -0.7174    0.0777   -5.6157 C.3       1 ACP        -0.5612
      9 PA          3.3324   -0.0529   -4.3266 P.3       1 ACP         1.6019
     10 O1A         4.1264    0.9964   -5.0738 O.co2     1 ACP        -0.9040
     11 O2A         3.8347   -1.4774   -4.2320 O.co2     1 ACP        -0.9040
     12 O3A         1.8151   -0.0782   -4.9299 O.3       1 ACP        -0.8156
     13 O5'         3.0198    0.5138   -2.8245 O.3       1 ACP        -0.5465
     14 C5'         2.2816   -0.2918   -1.9206 C.3       1 ACP         0.2108
     15 C4'         2.7248    0.0226   -0.4980 C.3       1 ACP         0.0552
     16 O4'         2.4697    1.4219   -0.2462 O.3       1 ACP        -0.3428
     17 C3'         1.9404   -0.7419    0.5596 C.3       1 ACP         0.0750
     18 O3'         2.7418   -0.8086    1.7389 O.3       1 ACP        -0.6066
     19 C2'         0.7477    0.1630    0.7858 C.3       1 ACP         0.1185
     20 O2'         0.1373   -0.0577    2.0407 O.3       1 ACP        -0.5858
     21 C1'         1.3733    1.5427    0.6747 C.3       1 ACP         0.3826
     22 N9          0.4520    2.5240    0.1767 N.pl3     1 ACP        -0.5729
     23 C8          0.5305    3.2394   -0.9358 C.ar      1 ACP         0.3288
     24 N7         -0.4966    4.0680   -1.1145 N.pl3     1 ACP        -0.5338
     25 C5         -1.2879    3.8664   -0.0375 C.ar      1 ACP        -0.2581
     26 C6         -2.4754    4.4084    0.3577 C.ar      1 ACP         0.7413
     27 N6         -3.0892    5.3882   -0.4495 N.pl3     1 ACP        -0.9512
     28 N1         -3.0632    4.0158    1.5092 N.ar      1 ACP        -0.7699
     29 C2         -2.4008    3.0654    2.2262 C.ar      1 ACP         0.6898
     30 N3         -1.2259    2.4663    1.9260 N.ar      1 ACP        -0.6800
     31 C4         -0.7062    2.9047    0.7757 C.ar      1 ACP         0.6129
     32 HOG3       -0.1066   -3.2386   -4.4180 H         1 ACP         0.4199
     33 H3B1       -1.5676    0.7593   -5.7300 H         1 ACP         0.0672
     34 H3B2       -0.4878   -0.3285   -6.6070 H         1 ACP         0.0672
     35 H5'1        1.2153   -0.0781   -2.0454 H         1 ACP         0.0277
     36 H5'2        2.4645   -1.3454   -2.1547 H         1 ACP         0.0277
     37 H4'         3.8050   -0.1388   -0.4008 H         1 ACP         0.1249
     38 H3'         1.6784   -1.7629    0.2714 H         1 ACP         0.0564
     39 HO3'        2.2232   -1.2979    2.3953 H         1 ACP         0.4511
     40 H2'        -0.0011    0.0027    0.0003 H         1 ACP         0.0716
     41 HO2'       -0.1563   -0.9855    2.0596 H         1 ACP         0.4454
     42 H1'         1.7826    1.9024    1.6451 H         1 ACP         0.1310
     43 H8          1.3437    3.1645   -1.6367 H         1 ACP         0.3565
     44 HN61       -2.6210    5.7042   -1.2748 H         1 ACP         0.4414
     45 HN62       -3.9356    5.8187   -0.1356 H         1 ACP         0.4414
     46 H2         -2.8752    2.7532    3.1495 H         1 ACP         0.0676
     47 H47        -0.6372    4.7004   -1.8900 H         1 ACP         0.5052
@<TRIPOS>BOND
     1    1    2 2
     2    1    3 1
     3    1    4 1
     4    1    8 1
     5    4   32 1
     6    5    6 2
     7    5    7 1
     8    5    8 1
     9    5   12 1
    10    8   33 1
    11    8   34 1
    12    9   10 2
    13    9   11 1
    14    9   12 1
    15    9   13 1
    16   13   14 1
    17   14   15 1
    18   14   35 1
    19   14   36 1
    20   15   16 1
    21   15   17 1
    22   15   37 1
    23   16   21 1
    24   17   18 1
    25   17   19 1
    26   17   38 1
    27   18   39 1
    28   19   20 1
    29   19   21 1
    30   19   40 1
    31   20   41 1
    32   21   22 1
    33   21   42 1
    34   22   23 ar
    35   22   31 ar
    36   23   24 ar
    37   23   43 1
    38   24   25 ar
    39   24   47 1
    40   25   26 ar
    41   25   31 ar
    42   26   27 1
    43   26   28 ar
    44   27   44 1
    45   27   45 1
    46   28   29 ar
    47   29   30 ar
    48   29   46 1
    49   30   31 ar
@<TRIPOS>SUBSTRUCTURE
     1 ACP         1 GROUP 0 A     ****
@<TRIPOS>MOLECULE
[[5-(6-amino-7,8-dihydropurin-8-ylium-9-yl)-3,4-dihydroxy-tetrahydrofuran-2-yl]methoxy-oxido-phosphoryl]oxy-[[hydroxy(oxido)phosphoryl]methyl]phosphinate
   47    49     1     0     0
SMALL
USER_CHARGES

@<TRIPOS>ATOM
      1 PG          0.7380   -3.8610   -4.4650 P.3       1 ACP         1.3755
      2 O1G        -0.1777   -4.8173   -5.1929 O.co2     1 ACP        -0.8970
      3 O2G         0.2212   -2.6137   -3.7858 O.co2     1 ACP        -0.8970
      4 O3G         1.6744   -4.6952   -3.4224 O.3       1 ACP        -0.7959
      5 PB          3.4120   -2.1648   -5.2052 P.3       1 ACP         1.5194
      6 O1B         4.2789   -1.9920   -6.4305 O.co2     1 ACP        -0.8958
      7 O2B         3.9769   -2.6131   -3.8770 O.co2     1 ACP        -0.8958
      8 C3B         2.0558   -3.3386   -5.6493 C.3       1 ACP        -0.5612
      9 PA          2.8601    0.6157   -4.3273 P.3       1 ACP         1.6019
     10 O1A         1.5863    1.4256   -4.2209 O.co2     1 ACP        -0.9040
     11 O2A         4.0722    1.1753   -5.0401 O.co2     1 ACP        -0.9040
     12 O3A         2.4963   -0.8339   -4.9854 O.3       1 ACP        -0.8156
     13 O5'         3.2883    0.1336   -2.8242 O.3       1 ACP        -0.5465
     14 C5'         2.2816   -0.2918   -1.9206 C.3       1 ACP         0.2108
     15 C4'         2.7248    0.0226   -0.4980 C.3       1 ACP         0.0552
     16 O4'         2.4697    1.4219   -0.2462 O.3       1 ACP        -0.3428
     17 C3'         1.9404   -0.7419    0.5596 C.3       1 ACP         0.0750
     18 O3'         2.7418   -0.8086    1.7389 O.3       1 ACP        -0.6066
     19 C2'         0.7477    0.1630    0.7858 C.3       1 ACP         0.1185
     20 O2'         0.1373   -0.0577    2.0407 O.3       1 ACP        -0.5858
     21 C1'         1.3733    1.5427    0.6747 C.3       1 ACP         0.3826
     22 N9          0.4520    2.5240    0.1767 N.pl3     1 ACP        -0.5729
     23 C8          0.1928    2.8484   -1.0815 C.ar      1 ACP         0.3288
     24 N7         -0.7248    3.8048   -1.2110 N.pl3     1 ACP        -0.5338
     25 C5         -1.0765    4.1129    0.0571 C.ar      1 ACP        -0.2581
     26 C6         -1.9614    5.0063    0.5851 C.ar      1 ACP         0.7413
     27 N6         -2.7145    5.8254   -0.2810 N.pl3     1 ACP        -0.9512
     28 N1         -2.1199    5.1113    1.9228 N.ar      1 ACP        -0.7699
     29 C2         -1.3522    4.2822    2.6839 C.ar      1 ACP         0.6898
     30 N3         -0.4501    3.3660    2.2638 N.ar      1 ACP        -0.6800
     31 C4         -0.3487    3.3198    0.9322 C.ar      1 ACP         0.6129
     32 HOG3        1.2377   -5.2137   -2.7133 H         1 ACP         0.4199
     33 H3B1        1.5353   -2.9016   -6.5087 H         1 ACP         0.0672
     34 H3B2        2.5470   -4.2548   -5.9954 H         1 ACP         0.0672
     35 H5'1        1.3500    0.2325   -2.1560 H         1 ACP         0.0277
     36 H5'2        2.1267   -1.3683   -2.0444 H         1 ACP         0.0277
     37 H4'         3.8050   -0.1388   -0.4008 H         1 ACP         0.1249
     38 H3'         1.6784   -1.7629    0.2714 H         1 ACP         0.0564
     39 HO3'        2.2232   -1.2979    2.3953 H         1 ACP         0.4511
     40 H2'        -0.0011    0.0027    0.0003 H         1 ACP         0.0716
     41 HO2'       -0.1563   -0.9855    2.0596 H         1 ACP         0.4454
     42 H1'         1.7826    1.9024    1.6451 H         1 ACP         0.1310
     43 H8          0.6728    2.3873   -1.9272 H         1 ACP         0.3565
     44 HN61       -2.5537    5.7714   -1.2667 H         1 ACP         0.4414
     45 HN62       -3.3283    6.5126    0.1080 H         1 ACP         0.4414
     46 H2         -1.4818    4.3694    3.7565 H         1 ACP         0.0676
     47 H47        -1.0701    4.2005   -2.0743 H         1 ACP         0.5052
@<TRIPOS>BOND
     1    1    2 2
     2    1    3 1
     3    1    4 1
     4    1    8 1
     5    4   32 1
     6    5    6 2
     7    5    7 1
     8    5    8 1
     9    5   12 1
    10    8   33 1
    11    8   34 1
    12    9   10 2
    13    9   11 1
    14    9   12 1
    15    9   13 1
    16   13   14 1
    17   14   15 1
    18   14   35 1
    19   14   36 1
    20   15   16 1
    21   15   17 1
    22   15   37 1
    23   16   21 1
    24   17   18 1
    25   17   19 1
    26   17   38 1
    27   18   39 1
    28   19   20 1
    29   19   21 1
    30   19   40 1
    31   20   41 1
    32   21   22 1
    33   21   42 1
    34   22   23 ar
    35   22   31 ar
    36   23   24 ar
    37   23   43 1
    38   24   25 ar
    39   24   47 1
    40   25   26 ar
    41   25   31 ar
    42   26   27 1
    43   26   28 ar
    44   27   44 1
    45   27   45 1
    46   28   29 ar
    47   29   30 ar
    48   29   46 1
    49   30   31 ar
@<TRIPOS>SUBSTRUCTURE
     1 ACP         1 GROUP 0 A     ****
@<TRIPOS>MOLECULE
[[5-(6-amino-7,8-dihydropurin-8-ylium-9-yl)-3,4-dihydroxy-tetrahydrofuran-2-yl]methoxy-oxido-phosphoryl]oxy-[[hydroxy(oxido)phosphoryl]methyl]phosphinate
   47    49     1     0     0
SMALL
USER_CHARGES

@<TRIPOS>ATOM
      1 PG         -6.3142   -6.2985    3.2599 P.3       1 ACP         1.3755
      2 O1G        -7.5214   -5.4033    3.4153 O.co2     1 ACP        -0.8970
      3 O2G        -5.4184   -6.6490    4.4257 O.co2     1 ACP        -0.8970
      4 O3G        -6.7493   -7.6650    2.4833 O.3       1 ACP        -0.7959
      5 PB         -3.6463   -6.3235    1.4006 P.3       1 ACP         1.5194
      6 O1B        -3.0762   -5.4413    0.3145 O.co2     1 ACP        -0.8958
      7 O2B        -3.8936   -7.7997    1.1907 O.co2     1 ACP        -0.8958
      8 C3B        -5.2445   -5.5704    1.9416 C.3       1 ACP        -0.5612
      9 PA         -1.2314   -6.3276    3.1254 P.3       1 ACP         1.6019
     10 O1A        -0.8495   -7.7340    2.7182 O.co2     1 ACP        -0.9040
     11 O2A        -0.9696   -5.8343    4.5320 O.co2     1 ACP        -0.9040
     12 O3A        -2.8126   -6.1031    2.7842 O.3       1 ACP        -0.8156
     13 O5'        -0.5697   -5.2855    2.0524 O.3       1 ACP        -0.5465
     14 C5'        -0.7840   -3.8935    2.2172 C.3       1 ACP         0.2108
     15 C4'        -0.0724   -3.1466    1.1027 C.3       1 ACP         0.0552
     16 O4'        -0.8674   -3.1929   -0.0945 O.3       1 ACP        -0.3428
     17 C3'         0.1338   -1.6715    1.4027 C.3       1 ACP         0.0750
     18 O3'         1.2893   -1.4445    2.1808 O.3       1 ACP        -0.6066
     19 C2'         0.2158   -1.0724    0.0128 C.3       1 ACP         0.1185
     20 O2'         1.5141   -1.2448   -0.5513 O.3       1 ACP        -0.5858
     21 C1'        -0.7897   -1.9176   -0.7583 C.3       1 ACP         0.3826
     22 N9         -2.1040   -1.3333   -0.7704 N.pl3     1 ACP        -0.5729
     23 C8         -3.0822   -1.4850    0.1102 C.ar      1 ACP         0.3288
     24 N7         -4.1844   -0.7999   -0.1888 N.pl3     1 ACP        -0.5338
     25 C5         -3.8875   -0.1651   -1.3445 C.ar      1 ACP        -0.2581
     26 C6         -4.5941    0.6799   -2.1486 C.ar      1 ACP         0.7413
     27 N6         -5.9138    1.0274   -1.7939 N.pl3     1 ACP        -0.9512
     28 N1         -4.0421    1.1824   -3.2748 N.ar      1 ACP        -0.7699
     29 C2         -2.7637    0.7937   -3.5405 C.ar      1 ACP         0.6898
     30 N3         -1.9788   -0.0343   -2.8139 N.ar      1 ACP        -0.6800
     31 C4         -2.5915   -0.4902   -1.7174 C.ar      1 ACP         0.6129
     32 HOG3       -7.4350   -8.2363    2.8904 H         1 ACP         0.4199
     33 H3B1       -5.0129   -4.5504    2.2680 H         1 ACP         0.0672
     34 H3B2       -5.8650   -5.4933    1.0419 H         1 ACP         0.0672
     35 H5'1       -1.8599   -3.6946    2.1849 H         1 ACP         0.0277
     36 H5'2       -0.3934   -3.5881    3.1930 H         1 ACP         0.0277
     37 H4'         0.8886   -3.6447    0.8779 H         1 ACP         0.1249
     38 H3'        -0.7373   -1.2359    1.9870 H         1 ACP         0.0564
     39 HO3'        1.3408   -0.4870    2.3219 H         1 ACP         0.4511
     40 H2'        -0.0384   -0.0310    0.0096 H         1 ACP         0.0716
     41 HO2'        2.1463   -0.7958    0.0370 H         1 ACP         0.4454
     42 H1'        -0.4769   -2.1002   -1.8093 H         1 ACP         0.1310
     43 H8         -3.0031   -2.1011    0.9891 H         1 ACP         0.3565
     44 HN61       -6.3271    0.6117   -0.9836 H         1 ACP         0.4414
     45 HN62       -6.4471    1.6092   -2.4083 H         1 ACP         0.4414
     46 H2         -2.3243    1.1986   -4.4449 H         1 ACP         0.0676
     47 H47        -5.0436   -0.7722    0.3425 H         1 ACP         0.5052
@<TRIPOS>BOND
     1    1    2 2
     2    1    3 1
     3    1    4 1
     4    1    8 1
     5    4   32 1
     6    5    6 2
     7    5    7 1
     8    5    8 1
     9    5   12 1
    10    8   33 1
    11    8   34 1
    12    9   10 2
    13    9   11 1
    14    9   12 1
    15    9   13 1
    16   13   14 1
    17   14   15 1
    18   14   35 1
    19   14   36 1
    20   15   16 1
    21   15   17 1
    22   15   37 1
    23   16   21 1
    24   17   18 1
    25   17   19 1
    26   17   38 1
    27   18   39 1
    28   19   20 1
    29   19   21 1
    30   19   40 1
    31   20   41 1
    32   21   22 1
    33   21   42 1
    34   22   23 ar
    35   22   31 ar
    36   23   24 ar
    37   23   43 1
    38   24   25 ar
    39   24   47 1
    40   25   26 ar
    41   25   31 ar
    42   26   27 1
    43   26   28 ar
    44   27   44 1
    45   27   45 1
    46   28   29 ar
    47   29   30 ar
    48   29   46 1
    49   30   31 ar
@<TRIPOS>SUBSTRUCTURE
     1 ACP         1 GROUP 0 A     ****
@<TRIPOS>MOLECULE
[[5-(6-amino-7,8-dihydropurin-8-ylium-9-yl)-3,4-dihydroxy-tetrahydrofuran-2-yl]methoxy-oxido-phosphoryl]oxy-[[hydroxy(oxido)phosphoryl]methyl]phosphinate
   47    49     1     0     0
SMALL
USER_CHARGES

@<TRIPOS>ATOM
      1 PG         -1.4188    0.2142   -5.2672 P.3       1 ACP         1.3755
      2 O1G        -2.4207    1.3033   -5.5721 O.co2     1 ACP        -0.8970
      3 O2G        -0.8466    0.0134   -3.8829 O.co2     1 ACP        -0.8970
      4 O3G        -1.9778   -1.2099   -5.8323 O.3       1 ACP        -0.7959
      5 PB          1.4818   -0.6857   -6.4298 P.3       1 ACP         1.5194
      6 O1B         2.4135   -0.1933   -7.5126 O.co2     1 ACP        -0.8958
      7 O2B         0.9758   -2.1093   -6.3902 O.co2     1 ACP        -0.8958
      8 C3B         0.0035    0.4228   -6.4272 C.3       1 ACP        -0.5612
      9 PA          3.4821   -0.6660   -4.2377 P.3       1 ACP         1.6019
     10 O1A         4.6119   -0.0112   -5.0023 O.co2     1 ACP        -0.9040
     11 O2A         3.4912   -2.1564   -3.9749 O.co2     1 ACP        -0.9040
     12 O3A         2.0730   -0.2777   -4.9662 O.3       1 ACP        -0.8156
     13 O5'         3.2883    0.1336   -2.8242 O.3       1 ACP        -0.5465
     14 C5'         2.2816   -0.2918   -1.9206 C.3       1 ACP         0.2108
     15 C4'         2.7248    0.0226   -0.4980 C.3       1 ACP         0.0552
     16 O4'         2.4697    1.4219   -0.2462 O.3       1 ACP        -0.3428
     17 C3'         1.9404   -0.7419    0.5596 C.3       1 ACP         0.0750
     18 O3'         2.7418   -0.8086    1.7389 O.3       1 ACP        -0.6066
     19 C2'         0.7477    0.1630    0.7858 C.3       1 ACP         0.1185
     20 O2'         0.1373   -0.0577    2.0407 O.3       1 ACP        -0.5858
     21 C1'         1.3733    1.5427    0.6747 C.3       1 ACP         0.3826
     22 N9          0.4520    2.5240    0.1767 N.pl3     1 ACP        -0.5729
     23 C8         -0.2172    2.5216   -0.9668 C.ar      1 ACP         0.3288
     24 N7         -1.0011    3.5855   -1.1321 N.pl3     1 ACP        -0.5338
     25 C5         -0.8184    4.3200   -0.0123 C.ar      1 ACP        -0.2581
     26 C6         -1.3349    5.5079    0.4144 C.ar      1 ACP         0.7413
     27 N6         -2.2567    6.1930   -0.4036 N.pl3     1 ACP        -0.9512
     28 N1         -0.9716    6.0291    1.6069 N.ar      1 ACP        -0.7699
     29 C2         -0.0765    5.3009    2.3312 C.ar      1 ACP         0.6898
     30 N3          0.4933    4.1191    2.0023 N.ar      1 ACP        -0.6800
     31 C4          0.0865    3.6675    0.8123 C.ar      1 ACP         0.6129
     32 HOG3       -2.8304   -1.5486   -5.4853 H         1 ACP         0.4199
     33 H3B1        0.3780    1.4401   -6.2680 H         1 ACP         0.0672
     34 H3B2       -0.4103    0.3812   -7.4409 H         1 ACP         0.0672
     35 H5'1        1.3500    0.2325   -2.1560 H         1 ACP         0.0277
     36 H5'2        2.1267   -1.3683   -2.0444 H         1 ACP         0.0277
     37 H4'         3.8050   -0.1388   -0.4008 H         1 ACP         0.1249
     38 H3'         1.6784   -1.7629    0.2714 H         1 ACP         0.0564
     39 HO3'        2.2232   -1.2979    2.3953 H         1 ACP         0.4511
     40 H2'        -0.0011    0.0027    0.0003 H         1 ACP         0.0716
     41 HO2'       -0.1563   -0.9855    2.0596 H         1 ACP         0.4454
     42 H1'         1.7826    1.9024    1.6451 H         1 ACP         0.1310
     43 H8         -0.1423    1.7373   -1.6999 H         1 ACP         0.3565
     44 HN61       -2.4811    5.8206   -1.3042 H         1 ACP         0.4414
     45 HN62       -2.5986    7.0863   -0.1113 H         1 ACP         0.4414
     46 H2          0.2128    5.7222    3.2871 H         1 ACP         0.0676
     47 H47        -1.5947    3.7835   -1.9255 H         1 ACP         0.5052
@<TRIPOS>BOND
     1    1    2 2
     2    1    3 1
     3    1    4 1
     4    1    8 1
     5    4   32 1
     6    5    6 2
     7    5    7 1
     8    5    8 1
     9    5   12 1
    10    8   33 1
    11    8   34 1
    12    9   10 2
    13    9   11 1
    14    9   12 1
    15    9   13 1
    16   13   14 1
    17   14   15 1
    18   14   35 1
    19   14   36 1
    20   15   16 1
    21   15   17 1
    22   15   37 1
    23   16   21 1
    24   17   18 1
    25   17   19 1
    26   17   38 1
    27   18   39 1
    28   19   20 1
    29   19   21 1
    30   19   40 1
    31   20   41 1
    32   21   22 1
    33   21   42 1
    34   22   23 ar
    35   22   31 ar
    36   23   24 ar
    37   23   43 1
    38   24   25 ar
    39   24   47 1
    40   25   26 ar
    41   25   31 ar
    42   26   27 1
    43   26   28 ar
    44   27   44 1
    45   27   45 1
    46   28   29 ar
    47   29   30 ar
    48   29   46 1
    49   30   31 ar
@<TRIPOS>SUBSTRUCTURE
     1 ACP         1 GROUP 0 A     ****
@<TRIPOS>MOLECULE
[[5-(6-amino-7,8-dihydropurin-8-ylium-9-yl)-3,4-dihydroxy-tetrahydrofuran-2-yl]methoxy-oxido-phosphoryl]oxy-[[hydroxy(oxido)phosphoryl]methyl]phosphinate
   47    49     1     0     0
SMALL
USER_CHARGES

@<TRIPOS>ATOM
      1 PG          0.3950   -0.2077   -6.9466 P.3       1 ACP         1.3755
      2 O1G         0.5994    0.6278   -5.7045 O.co2     1 ACP        -0.8970
      3 O2G        -0.9367   -0.2774   -7.6579 O.co2     1 ACP        -0.8970
      4 O3G         1.5675    0.1329   -8.0278 O.3       1 ACP        -0.7959
      5 PB          2.5989   -2.4004   -5.9926 P.3       1 ACP         1.5194
      6 O1B         3.5539   -2.0013   -7.0932 O.co2     1 ACP        -0.8958
      7 O2B         2.5311   -3.8130   -5.4596 O.co2     1 ACP        -0.8958
      8 C3B         0.8968   -1.9394   -6.5442 C.3       1 ACP        -0.5612
      9 PA          3.9989   -0.9668   -3.8036 P.3       1 ACP         1.6019
     10 O1A         5.0247   -0.2515   -4.6555 O.co2     1 ACP        -0.9040
     11 O2A         4.3843   -2.1858   -2.9937 O.co2     1 ACP        -0.9040
     12 O3A         2.7242   -1.3549   -4.7479 O.3       1 ACP        -0.8156
     13 O5'         3.2883    0.1336   -2.8242 O.3       1 ACP        -0.5465
     14 C5'         2.2816   -0.2918   -1.9206 C.3       1 ACP         0.2108
     15 C4'         2.7248    0.0226   -0.4980 C.3       1 ACP         0.0552
     16 O4'         2.4697    1.4219   -0.2462 O.3       1 ACP        -0.3428
     17 C3'         1.9404   -0.7419    0.5596 C.3       1 ACP         0.0750
     18 O3'         2.7418   -0.8086    1.7389 O.3       1 ACP        -0.6066
     19 C2'         0.7477    0.1630    0.7858 C.3       1 ACP         0.1185
     20 O2'         0.1373   -0.0577    2.0407 O.3       1 ACP        -0.5858
     21 C1'         1.3733    1.5427    0.6747 C.3       1 ACP         0.3826
     22 N9          0.4520    2.5240    0.1767 N.pl3     1 ACP        -0.5729
     23 C8          0.1928    2.8484   -1.0815 C.ar      1 ACP         0.3288
     24 N7         -0.7248    3.8048   -1.2110 N.pl3     1 ACP        -0.5338
     25 C5         -1.0765    4.1129    0.0571 C.ar      1 ACP        -0.2581
     26 C6         -1.9614    5.0063    0.5851 C.ar      1 ACP         0.7413
     27 N6         -2.7145    5.8254   -0.2810 N.pl3     1 ACP        -0.9512
     28 N1         -2.1199    5.1113    1.9228 N.ar      1 ACP        -0.7699
     29 C2         -1.3522    4.2822    2.6839 C.ar      1 ACP         0.6898
     30 N3         -0.4501    3.3660    2.2638 N.ar      1 ACP        -0.6800
     31 C4         -0.3487    3.3198    0.9322 C.ar      1 ACP         0.6129
     32 HOG3        1.6487    1.0540   -8.3552 H         1 ACP         0.4199
     33 H3B1        0.6900   -2.5315   -7.4426 H         1 ACP         0.0672
     34 H3B2        0.2170   -2.2879   -5.7588 H         1 ACP         0.0672
     35 H5'1        1.3500    0.2325   -2.1560 H         1 ACP         0.0277
     36 H5'2        2.1267   -1.3683   -2.0444 H         1 ACP         0.0277
     37 H4'         3.8050   -0.1388   -0.4008 H         1 ACP         0.1249
     38 H3'         1.6784   -1.7629    0.2714 H         1 ACP         0.0564
     39 HO3'        3.5554   -1.2733    1.4914 H         1 ACP         0.4511
     40 H2'        -0.0011    0.0027    0.0003 H         1 ACP         0.0716
     41 HO2'       -0.6141    0.5574    2.1082 H         1 ACP         0.4454
     42 H1'         1.7826    1.9024    1.6451 H         1 ACP         0.1310
     43 H8          0.6728    2.3873   -1.9272 H         1 ACP         0.3565
     44 HN61       -3.3968    6.4465    0.1048 H         1 ACP         0.4414
     45 HN62       -2.6221    5.7051   -1.2696 H         1 ACP         0.4414
     46 H2         -1.4818    4.3694    3.7565 H         1 ACP         0.0676
     47 H47        -1.0701    4.2005   -2.0743 H         1 ACP         0.5052
@<TRIPOS>BOND
     1    1    2 2
     2    1    3 1
     3    1    4 1
     4    1    8 1
     5    4   32 1
     6    5    6 2
     7    5    7 1
     8    5    8 1
     9    5   12 1
    10    8   33 1
    11    8   34 1
    12    9   10 2
    13    9   11 1
    14    9   12 1
    15    9   13 1
    16   13   14 1
    17   14   15 1
    18   14   35 1
    19   14   36 1
    20   15   16 1
    21   15   17 1
    22   15   37 1
    23   16   21 1
    24   17   18 1
    25   17   19 1
    26   17   38 1
    27   18   39 1
    28   19   20 1
    29   19   21 1
    30   19   40 1
    31   20   41 1
    32   21   22 1
    33   21   42 1
    34   22   23 ar
    35   22   31 ar
    36   23   24 ar
    37   23   43 1
    38   24   25 ar
    39   24   47 1
    40   25   26 ar
    41   25   31 ar
    42   26   27 1
    43   26   28 ar
    44   27   44 1
    45   27   45 1
    46   28   29 ar
    47   29   30 ar
    48   29   46 1
    49   30   31 ar
@<TRIPOS>SUBSTRUCTURE
     1 ACP         1 GROUP 0 A     ****
@<TRIPOS>MOLECULE
[[5-(6-amino-7,8-dihydropurin-8-ylium-9-yl)-3,4-dihydroxy-tetrahydrofuran-2-yl]methoxy-oxido-phosphoryl]oxy-[[hydroxy(oxido)phosphoryl]methyl]phosphinate
   47    49     1     0     0
SMALL
USER_CHARGES

@<TRIPOS>ATOM
      1 PG          7.5093   -1.1511   -2.7925 P.3       1 ACP         1.3755
      2 O1G         8.0177   -2.5518   -3.0420 O.co2     1 ACP        -0.8970
      3 O2G         6.5441   -0.8340   -1.6735 O.co2     1 ACP        -0.8970
      4 O3G         8.7716   -0.1205   -2.7251 O.3       1 ACP        -0.7959
      5 PB          5.3244   -1.3769   -5.1905 P.3       1 ACP         1.5194
      6 O1B         5.7568   -2.7849   -5.5268 O.co2     1 ACP        -0.8958
      7 O2B         4.7951   -0.4259   -6.2392 O.co2     1 ACP        -0.8958
      8 C3B         6.7513   -0.5436   -4.3636 C.3       1 ACP        -0.5612
      9 PA          2.8591   -2.1299   -3.7201 P.3       1 ACP         1.6019
     10 O1A         3.0727   -3.6280   -3.7234 O.co2     1 ACP        -0.9040
     11 O2A         1.8686   -1.4903   -4.6689 O.co2     1 ACP        -0.9040
     12 O3A         4.3077   -1.4018   -3.9162 O.3       1 ACP        -0.8156
     13 O5'         2.5237   -1.6631   -2.1889 O.3       1 ACP        -0.5465
     14 C5'         2.2816   -0.2918   -1.9206 C.3       1 ACP         0.2108
     15 C4'         2.7248    0.0226   -0.4980 C.3       1 ACP         0.0552
     16 O4'         2.4697    1.4219   -0.2462 O.3       1 ACP        -0.3428
     17 C3'         1.9404   -0.7419    0.5596 C.3       1 ACP         0.0750
     18 O3'         2.7418   -0.8086    1.7389 O.3       1 ACP        -0.6066
     19 C2'         0.7477    0.1630    0.7858 C.3       1 ACP         0.1185
     20 O2'         0.1373   -0.0577    2.0407 O.3       1 ACP        -0.5858
     21 C1'         1.3733    1.5427    0.6747 C.3       1 ACP         0.3826
     22 N9          0.4520    2.5240    0.1767 N.pl3     1 ACP        -0.5729
     23 C8         -0.2172    2.5216   -0.9668 C.ar      1 ACP         0.3288
     24 N7         -1.0011    3.5855   -1.1321 N.pl3     1 ACP        -0.5338
     25 C5         -0.8184    4.3200   -0.0123 C.ar      1 ACP        -0.2581
     26 C6         -1.3349    5.5079    0.4144 C.ar      1 ACP         0.7413
     27 N6         -2.2567    6.1930   -0.4036 N.pl3     1 ACP        -0.9512
     28 N1         -0.9716    6.0291    1.6069 N.ar      1 ACP        -0.7699
     29 C2         -0.0765    5.3009    2.3312 C.ar      1 ACP         0.6898
     30 N3          0.4933    4.1191    2.0023 N.ar      1 ACP        -0.6800
     31 C4          0.0865    3.6675    0.8123 C.ar      1 ACP         0.6129
     32 HOG3        9.4572   -0.2649   -2.0386 H         1 ACP         0.4199
     33 H3B1        7.5625   -0.5129   -5.0996 H         1 ACP         0.0672
     34 H3B2        6.4363    0.4896   -4.1803 H         1 ACP         0.0672
     35 H5'1        2.8429    0.3140   -2.6391 H         1 ACP         0.0277
     36 H5'2        1.2125   -0.0906   -2.0420 H         1 ACP         0.0277
     37 H4'         3.8050   -0.1388   -0.4008 H         1 ACP         0.1249
     38 H3'         1.6784   -1.7629    0.2714 H         1 ACP         0.0564
     39 HO3'        2.2232   -1.2979    2.3953 H         1 ACP         0.4511
     40 H2'        -0.0011    0.0027    0.0003 H         1 ACP         0.0716
     41 HO2'       -0.1563   -0.9855    2.0596 H         1 ACP         0.4454
     42 H1'         1.7826    1.9024    1.6451 H         1 ACP         0.1310
     43 H8         -0.1423    1.7373   -1.6999 H         1 ACP         0.3565
     44 HN61       -2.4811    5.8206   -1.3042 H         1 ACP         0.4414
     45 HN62       -2.5986    7.0863   -0.1113 H         1 ACP         0.4414
     46 H2          0.2128    5.7222    3.2871 H         1 ACP         0.0676
     47 H47        -1.5947    3.7835   -1.9255 H         1 ACP         0.5052
@<TRIPOS>BOND
     1    1    2 2
     2    1    3 1
     3    1    4 1
     4    1    8 1
     5    4   32 1
     6    5    6 2
     7    5    7 1
     8    5    8 1
     9    5   12 1
    10    8   33 1
    11    8   34 1
    12    9   10 2
    13    9   11 1
    14    9   12 1
    15    9   13 1
    16   13   14 1
    17   14   15 1
    18   14   35 1
    19   14   36 1
    20   15   16 1
    21   15   17 1
    22   15   37 1
    23   16   21 1
    24   17   18 1
    25   17   19 1
    26   17   38 1
    27   18   39 1
    28   19   20 1
    29   19   21 1
    30   19   40 1
    31   20   41 1
    32   21   22 1
    33   21   42 1
    34   22   23 ar
    35   22   31 ar
    36   23   24 ar
    37   23   43 1
    38   24   25 ar
    39   24   47 1
    40   25   26 ar
    41   25   31 ar
    42   26   27 1
    43   26   28 ar
    44   27   44 1
    45   27   45 1
    46   28   29 ar
    47   29   30 ar
    48   29   46 1
    49   30   31 ar
@<TRIPOS>SUBSTRUCTURE
     1 ACP         1 GROUP 0 A     ****
@<TRIPOS>MOLECULE
[[5-(6-amino-7,8-dihydropurin-8-ylium-9-yl)-3,4-dihydroxy-tetrahydrofuran-2-yl]methoxy-oxido-phosphoryl]oxy-[[hydroxy(oxido)phosphoryl]methyl]phosphinate
   47    49     1     0     0
SMALL
USER_CHARGES

@<TRIPOS>ATOM
      1 PG          1.9235   -1.2778   -7.1863 P.3       1 ACP         1.3755
      2 O1G         1.9559   -0.2479   -8.2913 O.co2     1 ACP        -0.8970
      3 O2G         2.3211   -2.7174   -7.4177 O.co2     1 ACP        -0.8970
      4 O3G         2.7183   -0.7007   -5.8843 O.3       1 ACP        -0.7959
      5 PB         -0.3016   -2.3895   -5.0915 P.3       1 ACP         1.5194
      6 O1B        -0.1046   -3.8147   -5.5528 O.co2     1 ACP        -0.8958
      7 O2B        -1.6341   -1.8839   -4.5885 O.co2     1 ACP        -0.8958
      8 C3B         0.2176   -1.2836   -6.4776 C.3       1 ACP        -0.5612
      9 PA          1.2676   -2.6330   -2.5845 P.3       1 ACP         1.6019
     10 O1A         1.8014   -4.0298   -2.8163 O.co2     1 ACP        -0.9040
     11 O2A         0.1253   -2.3943   -1.6209 O.co2     1 ACP        -0.9040
     12 O3A         0.8686   -1.9867   -4.0302 O.3       1 ACP        -0.8156
     13 O5'         2.5237   -1.6631   -2.1889 O.3       1 ACP        -0.5465
     14 C5'         2.2816   -0.2918   -1.9206 C.3       1 ACP         0.2108
     15 C4'         2.7248    0.0226   -0.4980 C.3       1 ACP         0.0552
     16 O4'         2.4697    1.4219   -0.2462 O.3       1 ACP        -0.3428
     17 C3'         1.9404   -0.7419    0.5596 C.3       1 ACP         0.0750
     18 O3'         2.7418   -0.8086    1.7389 O.3       1 ACP        -0.6066
     19 C2'         0.7477    0.1630    0.7858 C.3       1 ACP         0.1185
     20 O2'         0.1373   -0.0577    2.0407 O.3       1 ACP        -0.5858
     21 C1'         1.3733    1.5427    0.6747 C.3       1 ACP         0.3826
     22 N9          0.4520    2.5240    0.1767 N.pl3     1 ACP        -0.5729
     23 C8          0.1928    2.8484   -1.0815 C.ar      1 ACP         0.3288
     24 N7         -0.7248    3.8048   -1.2110 N.pl3     1 ACP        -0.5338
     25 C5         -1.0765    4.1129    0.0571 C.ar      1 ACP        -0.2581
     26 C6         -1.9614    5.0063    0.5851 C.ar      1 ACP         0.7413
     27 N6         -2.7145    5.8254   -0.2810 N.pl3     1 ACP        -0.9512
     28 N1         -2.1199    5.1113    1.9228 N.ar      1 ACP        -0.7699
     29 C2         -1.3522    4.2822    2.6839 C.ar      1 ACP         0.6898
     30 N3         -0.4501    3.3660    2.2638 N.ar      1 ACP        -0.6800
     31 C4         -0.3487    3.3198    0.9322 C.ar      1 ACP         0.6129
     32 HOG3        3.6657   -0.4656   -5.9809 H         1 ACP         0.4199
     33 H3B1       -0.4575   -1.4956   -7.3141 H         1 ACP         0.0672
     34 H3B2        0.0138   -0.2602   -6.1436 H         1 ACP         0.0672
     35 H5'1        2.8429    0.3140   -2.6391 H         1 ACP         0.0277
     36 H5'2        1.2125   -0.0906   -2.0420 H         1 ACP         0.0277
     37 H4'         3.8050   -0.1388   -0.4008 H         1 ACP         0.1249
     38 H3'         1.6784   -1.7629    0.2714 H         1 ACP         0.0564
     39 HO3'        2.2232   -1.2979    2.3953 H         1 ACP         0.4511
     40 H2'        -0.0011    0.0027    0.0003 H         1 ACP         0.0716
     41 HO2'       -0.6141    0.5574    2.1082 H         1 ACP         0.4454
     42 H1'         1.7826    1.9024    1.6451 H         1 ACP         0.1310
     43 H8          0.6728    2.3873   -1.9272 H         1 ACP         0.3565
     44 HN61       -2.5537    5.7714   -1.2667 H         1 ACP         0.4414
     45 HN62       -3.3283    6.5126    0.1080 H         1 ACP         0.4414
     46 H2         -1.4818    4.3694    3.7565 H         1 ACP         0.0676
     47 H47        -1.0701    4.2005   -2.0743 H         1 ACP         0.5052
@<TRIPOS>BOND
     1    1    2 2
     2    1    3 1
     3    1    4 1
     4    1    8 1
     5    4   32 1
     6    5    6 2
     7    5    7 1
     8    5    8 1
     9    5   12 1
    10    8   33 1
    11    8   34 1
    12    9   10 2
    13    9   11 1
    14    9   12 1
    15    9   13 1
    16   13   14 1
    17   14   15 1
    18   14   35 1
    19   14   36 1
    20   15   16 1
    21   15   17 1
    22   15   37 1
    23   16   21 1
    24   17   18 1
    25   17   19 1
    26   17   38 1
    27   18   39 1
    28   19   20 1
    29   19   21 1
    30   19   40 1
    31   20   41 1
    32   21   22 1
    33   21   42 1
    34   22   23 ar
    35   22   31 ar
    36   23   24 ar
    37   23   43 1
    38   24   25 ar
    39   24   47 1
    40   25   26 ar
    41   25   31 ar
    42   26   27 1
    43   26   28 ar
    44   27   44 1
    45   27   45 1
    46   28   29 ar
    47   29   30 ar
    48   29   46 1
    49   30   31 ar
@<TRIPOS>SUBSTRUCTURE
     1 ACP         1 GROUP 0 A     ****
@<TRIPOS>MOLECULE
[[5-(6-amino-7,8-dihydropurin-8-ylium-9-yl)-3,4-dihydroxy-tetrahydrofuran-2-yl]methoxy-oxido-phosphoryl]oxy-[[hydroxy(oxido)phosphoryl]methyl]phosphinate
   47    49     1     0     0
SMALL
USER_CHARGES

@<TRIPOS>ATOM
      1 PG         -2.3103   -0.4650   -3.0136 P.3       1 ACP         1.3755
      2 O1G        -1.1563   -0.1741   -2.0827 O.co2     1 ACP        -0.8970
      3 O2G        -3.7499   -0.2960   -2.5859 O.co2     1 ACP        -0.8970
      4 O3G        -2.0730    0.3094   -4.4292 O.3       1 ACP        -0.7959
      5 PB         -0.6408   -2.7814   -4.5701 P.3       1 ACP         1.5194
      6 O1B        -0.5592   -1.9529   -5.8309 O.co2     1 ACP        -0.8958
      7 O2B        -0.6954   -4.2915   -4.6021 O.co2     1 ACP        -0.8958
      8 C3B        -2.1151   -2.1986   -3.6208 C.3       1 ACP        -0.5612
      9 PA          2.1362   -2.2698   -3.6575 P.3       1 ACP         1.6019
     10 O1A         2.5073   -1.2450   -4.7072 O.co2     1 ACP        -0.9040
     11 O2A         2.6360   -3.6946   -3.7605 O.co2     1 ACP        -0.9040
     12 O3A         0.5093   -2.3009   -3.5192 O.3       1 ACP        -0.8156
     13 O5'         2.5237   -1.6631   -2.1889 O.3       1 ACP        -0.5465
     14 C5'         2.2816   -0.2918   -1.9206 C.3       1 ACP         0.2108
     15 C4'         2.7248    0.0226   -0.4980 C.3       1 ACP         0.0552
     16 O4'         2.4697    1.4219   -0.2462 O.3       1 ACP        -0.3428
     17 C3'         1.9404   -0.7419    0.5596 C.3       1 ACP         0.0750
     18 O3'         2.7418   -0.8086    1.7389 O.3       1 ACP        -0.6066
     19 C2'         0.7477    0.1630    0.7858 C.3       1 ACP         0.1185
     20 O2'         0.1373   -0.0577    2.0407 O.3       1 ACP        -0.5858
     21 C1'         1.3733    1.5427    0.6747 C.3       1 ACP         0.3826
     22 N9          0.4520    2.5240    0.1767 N.pl3     1 ACP        -0.5729
     23 C8          0.1928    2.8484   -1.0815 C.ar      1 ACP         0.3288
     24 N7         -0.7248    3.8048   -1.2110 N.pl3     1 ACP        -0.5338
     25 C5         -1.0765    4.1129    0.0571 C.ar      1 ACP        -0.2581
     26 C6         -1.9614    5.0063    0.5851 C.ar      1 ACP         0.7413
     27 N6         -2.7145    5.8254   -0.2810 N.pl3     1 ACP        -0.9512
     28 N1         -2.1199    5.1113    1.9228 N.ar      1 ACP        -0.7699
     29 C2         -1.3522    4.2822    2.6839 C.ar      1 ACP         0.6898
     30 N3         -0.4501    3.3660    2.2638 N.ar      1 ACP        -0.6800
     31 C4         -0.3487    3.3198    0.9322 C.ar      1 ACP         0.6129
     32 HOG3       -1.9976    1.2873   -4.4205 H         1 ACP         0.4199
     33 H3B1       -2.9893   -2.3998   -4.2498 H         1 ACP         0.0672
     34 H3B2       -2.1877   -2.8484   -2.7417 H         1 ACP         0.0672
     35 H5'1        2.8429    0.3140   -2.6391 H         1 ACP         0.0277
     36 H5'2        1.2125   -0.0906   -2.0420 H         1 ACP         0.0277
     37 H4'         3.8050   -0.1388   -0.4008 H         1 ACP         0.1249
     38 H3'         1.6784   -1.7629    0.2714 H         1 ACP         0.0564
     39 HO3'        2.2232   -1.2979    2.3953 H         1 ACP         0.4511
     40 H2'        -0.0011    0.0027    0.0003 H         1 ACP         0.0716
     41 HO2'       -0.6141    0.5574    2.1082 H         1 ACP         0.4454
     42 H1'         1.7826    1.9024    1.6451 H         1 ACP         0.1310
     43 H8          0.6728    2.3873   -1.9272 H         1 ACP         0.3565
     44 HN61       -2.5537    5.7714   -1.2667 H         1 ACP         0.4414
     45 HN62       -3.3283    6.5126    0.1080 H         1 ACP         0.4414
     46 H2         -1.4818    4.3694    3.7565 H         1 ACP         0.0676
     47 H47        -1.0701    4.2005   -2.0743 H         1 ACP         0.5052
@<TRIPOS>BOND
     1    1    2 2
     2    1    3 1
     3    1    4 1
     4    1    8 1
     5    4   32 1
     6    5    6 2
     7    5    7 1
     8    5    8 1
     9    5   12 1
    10    8   33 1
    11    8   34 1
    12    9   10 2
    13    9   11 1
    14    9   12 1
    15    9   13 1
    16   13   14 1
    17   14   15 1
    18   14   35 1
    19   14   36 1
    20   15   16 1
    21   15   17 1
    22   15   37 1
    23   16   21 1
    24   17   18 1
    25   17   19 1
    26   17   38 1
    27   18   39 1
    28   19   20 1
    29   19   21 1
    30   19   40 1
    31   20   41 1
    32   21   22 1
    33   21   42 1
    34   22   23 ar
    35   22   31 ar
    36   23   24 ar
    37   23   43 1
    38   24   25 ar
    39   24   47 1
    40   25   26 ar
    41   25   31 ar
    42   26   27 1
    43   26   28 ar
    44   27   44 1
    45   27   45 1
    46   28   29 ar
    47   29   30 ar
    48   29   46 1
    49   30   31 ar
@<TRIPOS>SUBSTRUCTURE
     1 ACP         1 GROUP 0 A     ****
@<TRIPOS>MOLECULE
[[5-(6-amino-7,8-dihydropurin-8-ylium-9-yl)-3,4-dihydroxy-tetrahydrofuran-2-yl]methoxy-oxido-phosphoryl]oxy-[[hydroxy(oxido)phosphoryl]methyl]phosphinate
   47    49     1     0     0
SMALL
USER_CHARGES

@<TRIPOS>ATOM
      1 PG         -5.2336   -6.2870    0.4008 P.3       1 ACP         1.3755
      2 O1G        -3.9381   -5.6345   -0.0219 O.co2     1 ACP        -0.8970
      3 O2G        -6.5636   -5.8977   -0.2024 O.co2     1 ACP        -0.8970
      4 O3G        -5.0680   -7.9084    0.3421 O.3       1 ACP        -0.7959
      5 PB         -4.1485   -6.7825    3.4260 P.3       1 ACP         1.5194
      6 O1B        -4.1072   -8.2794    3.2254 O.co2     1 ACP        -0.8958
      7 O2B        -4.4336   -6.1591    4.7730 O.co2     1 ACP        -0.8958
      8 C3B        -5.3823   -6.0992    2.2324 C.3       1 ACP        -0.5612
      9 PA         -1.2314   -6.3276    3.1254 P.3       1 ACP         1.6019
     10 O1A        -0.8495   -7.7340    2.7182 O.co2     1 ACP        -0.9040
     11 O2A        -0.9696   -5.8343    4.5320 O.co2     1 ACP        -0.9040
     12 O3A        -2.8126   -6.1031    2.7842 O.3       1 ACP        -0.8156
     13 O5'        -0.5697   -5.2855    2.0524 O.3       1 ACP        -0.5465
     14 C5'        -0.7840   -3.8935    2.2172 C.3       1 ACP         0.2108
     15 C4'        -0.0724   -3.1466    1.1027 C.3       1 ACP         0.0552
     16 O4'        -0.8674   -3.1929   -0.0945 O.3       1 ACP        -0.3428
     17 C3'         0.1338   -1.6715    1.4027 C.3       1 ACP         0.0750
     18 O3'         1.2893   -1.4445    2.1808 O.3       1 ACP        -0.6066
     19 C2'         0.2158   -1.0724    0.0128 C.3       1 ACP         0.1185
     20 O2'         1.5141   -1.2448   -0.5513 O.3       1 ACP        -0.5858
     21 C1'        -0.7897   -1.9176   -0.7583 C.3       1 ACP         0.3826
     22 N9         -2.1040   -1.3333   -0.7704 N.pl3     1 ACP        -0.5729
     23 C8         -3.0822   -1.4850    0.1102 C.ar      1 ACP         0.3288
     24 N7         -4.1844   -0.7999   -0.1888 N.pl3     1 ACP        -0.5338
     25 C5         -3.8875   -0.1651   -1.3445 C.ar      1 ACP        -0.2581
     26 C6         -4.5941    0.6799   -2.1486 C.ar      1 ACP         0.7413
     27 N6         -5.9138    1.0274   -1.7939 N.pl3     1 ACP        -0.9512
     28 N1         -4.0421    1.1824   -3.2748 N.ar      1 ACP        -0.7699
     29 C2         -2.7637    0.7937   -3.5405 C.ar      1 ACP         0.6898
     30 N3         -1.9788   -0.0343   -2.8139 N.ar      1 ACP        -0.6800
     31 C4         -2.5915   -0.4902   -1.7174 C.ar      1 ACP         0.6129
     32 HOG3       -4.8456   -8.3251   -0.5176 H         1 ACP         0.4199
     33 H3B1       -6.3510   -6.5331    2.5040 H         1 ACP         0.0672
     34 H3B2       -5.4374   -5.0236    2.4334 H         1 ACP         0.0672
     35 H5'1       -1.8599   -3.6946    2.1849 H         1 ACP         0.0277
     36 H5'2       -0.3934   -3.5881    3.1930 H         1 ACP         0.0277
     37 H4'         0.8886   -3.6447    0.8779 H         1 ACP         0.1249
     38 H3'        -0.7373   -1.2359    1.9870 H         1 ACP         0.0564
     39 HO3'        1.1626   -1.9325    3.0084 H         1 ACP         0.4511
     40 H2'        -0.0384   -0.0310    0.0096 H         1 ACP         0.0716
     41 HO2'        2.1463   -0.7958    0.0370 H         1 ACP         0.4454
     42 H1'        -0.4769   -2.1002   -1.8093 H         1 ACP         0.1310
     43 H8         -3.0031   -2.1011    0.9891 H         1 ACP         0.3565
     44 HN61       -6.3271    0.6117   -0.9836 H         1 ACP         0.4414
     45 HN62       -6.4471    1.6092   -2.4083 H         1 ACP         0.4414
     46 H2         -2.3243    1.1986   -4.4449 H         1 ACP         0.0676
     47 H47        -5.0436   -0.7722    0.3425 H         1 ACP         0.5052
@<TRIPOS>BOND
     1    1    2 2
     2    1    3 1
     3    1    4 1
     4    1    8 1
     5    4   32 1
     6    5    6 2
     7    5    7 1
     8    5    8 1
     9    5   12 1
    10    8   33 1
    11    8   34 1
    12    9   10 2
    13    9   11 1
    14    9   12 1
    15    9   13 1
    16   13   14 1
    17   14   15 1
    18   14   35 1
    19   14   36 1
    20   15   16 1
    21   15   17 1
    22   15   37 1
    23   16   21 1
    24   17   18 1
    25   17   19 1
    26   17   38 1
    27   18   39 1
    28   19   20 1
    29   19   21 1
    30   19   40 1
    31   20   41 1
    32   21   22 1
    33   21   42 1
    34   22   23 ar
    35   22   31 ar
    36   23   24 ar
    37   23   43 1
    38   24   25 ar
    39   24   47 1
    40   25   26 ar
    41   25   31 ar
    42   26   27 1
    43   26   28 ar
    44   27   44 1
    45   27   45 1
    46   28   29 ar
    47   29   30 ar
    48   29   46 1
    49   30   31 ar
@<TRIPOS>SUBSTRUCTURE
     1 ACP         1 GROUP 0 A     ****
@<TRIPOS>MOLECULE
[[5-(6-amino-7,8-dihydropurin-8-ylium-9-yl)-3,4-dihydroxy-tetrahydrofuran-2-yl]methoxy-oxido-phosphoryl]oxy-[[hydroxy(oxido)phosphoryl]methyl]phosphinate
   47    49     1     0     0
SMALL
USER_CHARGES

@<TRIPOS>ATOM
      1 PG          0.2307    0.0322   -6.6611 P.3       1 ACP         1.3755
      2 O1G        -0.3871    1.3432   -7.0881 O.co2     1 ACP        -0.8970
      3 O2G        -0.1442   -0.6482   -5.3646 O.co2     1 ACP        -0.8970
      4 O3G         0.1243   -1.0409   -7.8846 O.3       1 ACP        -0.7959
      5 PB          3.2480   -1.0895   -6.1991 P.3       1 ACP         1.5194
      6 O1B         4.6432   -0.5224   -6.3192 O.co2     1 ACP        -0.8958
      7 O2B         2.8203   -2.3367   -6.9379 O.co2     1 ACP        -0.8958
      8 C3B         2.0646    0.2534   -6.6578 C.3       1 ACP        -0.5612
      9 PA          3.5286   -2.0718   -3.4129 P.3       1 ACP         1.6019
     10 O1A         4.8908   -1.4784   -3.1267 O.co2     1 ACP        -0.9040
     11 O2A         3.3785   -3.5472   -3.7151 O.co2     1 ACP        -0.9040
     12 O3A         2.8404   -1.2225   -4.6261 O.3       1 ACP        -0.8156
     13 O5'         2.5237   -1.6631   -2.1889 O.3       1 ACP        -0.5465
     14 C5'         2.2816   -0.2918   -1.9206 C.3       1 ACP         0.2108
     15 C4'         2.7248    0.0226   -0.4980 C.3       1 ACP         0.0552
     16 O4'         2.4697    1.4219   -0.2462 O.3       1 ACP        -0.3428
     17 C3'         1.9404   -0.7419    0.5596 C.3       1 ACP         0.0750
     18 O3'         2.7418   -0.8086    1.7389 O.3       1 ACP        -0.6066
     19 C2'         0.7477    0.1630    0.7858 C.3       1 ACP         0.1185
     20 O2'         0.1373   -0.0577    2.0407 O.3       1 ACP        -0.5858
     21 C1'         1.3733    1.5427    0.6747 C.3       1 ACP         0.3826
     22 N9          0.4520    2.5240    0.1767 N.pl3     1 ACP        -0.5729
     23 C8          0.1928    2.8484   -1.0815 C.ar      1 ACP         0.3288
     24 N7         -0.7248    3.8048   -1.2110 N.pl3     1 ACP        -0.5338
     25 C5         -1.0765    4.1129    0.0571 C.ar      1 ACP        -0.2581
     26 C6         -1.9614    5.0063    0.5851 C.ar      1 ACP         0.7413
     27 N6         -2.7145    5.8254   -0.2810 N.pl3     1 ACP        -0.9512
     28 N1         -2.1199    5.1113    1.9228 N.ar      1 ACP        -0.7699
     29 C2         -1.3522    4.2822    2.6839 C.ar      1 ACP         0.6898
     30 N3         -0.4501    3.3660    2.2638 N.ar      1 ACP        -0.6800
     31 C4         -0.3487    3.3198    0.9322 C.ar      1 ACP         0.6129
     32 HOG3       -0.7656   -1.2803   -8.2208 H         1 ACP         0.4199
     33 H3B1        2.2678    1.0912   -5.9816 H         1 ACP         0.0672
     34 H3B2        2.3433    0.5730   -7.6681 H         1 ACP         0.0672
     35 H5'1        2.8429    0.3140   -2.6391 H         1 ACP         0.0277
     36 H5'2        1.2125   -0.0906   -2.0420 H         1 ACP         0.0277
     37 H4'         3.8050   -0.1388   -0.4008 H         1 ACP         0.1249
     38 H3'         1.6784   -1.7629    0.2714 H         1 ACP         0.0564
     39 HO3'        2.2232   -1.2979    2.3953 H         1 ACP         0.4511
     40 H2'        -0.0011    0.0027    0.0003 H         1 ACP         0.0716
     41 HO2'       -0.6141    0.5574    2.1082 H         1 ACP         0.4454
     42 H1'         1.7826    1.9024    1.6451 H         1 ACP         0.1310
     43 H8          0.6728    2.3873   -1.9272 H         1 ACP         0.3565
     44 HN61       -2.5537    5.7714   -1.2667 H         1 ACP         0.4414
     45 HN62       -3.3283    6.5126    0.1080 H         1 ACP         0.4414
     46 H2         -1.4818    4.3694    3.7565 H         1 ACP         0.0676
     47 H47        -1.0701    4.2005   -2.0743 H         1 ACP         0.5052
@<TRIPOS>BOND
     1    1    2 2
     2    1    3 1
     3    1    4 1
     4    1    8 1
     5    4   32 1
     6    5    6 2
     7    5    7 1
     8    5    8 1
     9    5   12 1
    10    8   33 1
    11    8   34 1
    12    9   10 2
    13    9   11 1
    14    9   12 1
    15    9   13 1
    16   13   14 1
    17   14   15 1
    18   14   35 1
    19   14   36 1
    20   15   16 1
    21   15   17 1
    22   15   37 1
    23   16   21 1
    24   17   18 1
    25   17   19 1
    26   17   38 1
    27   18   39 1
    28   19   20 1
    29   19   21 1
    30   19   40 1
    31   20   41 1
    32   21   22 1
    33   21   42 1
    34   22   23 ar
    35   22   31 ar
    36   23   24 ar
    37   23   43 1
    38   24   25 ar
    39   24   47 1
    40   25   26 ar
    41   25   31 ar
    42   26   27 1
    43   26   28 ar
    44   27   44 1
    45   27   45 1
    46   28   29 ar
    47   29   30 ar
    48   29   46 1
    49   30   31 ar
@<TRIPOS>SUBSTRUCTURE
     1 ACP         1 GROUP 0 A     ****
@<TRIPOS>MOLECULE
[[5-(6-amino-7,8-dihydropurin-8-ylium-9-yl)-3,4-dihydroxy-tetrahydrofuran-2-yl]methoxy-oxido-phosphoryl]oxy-[[hydroxy(oxido)phosphoryl]methyl]phosphinate
   47    49     1     0     0
SMALL
USER_CHARGES

@<TRIPOS>ATOM
      1 PG         -1.5658   -8.4351    2.0245 P.3       1 ACP         1.3755
      2 O1G        -2.6228   -7.5413    2.6300 O.co2     1 ACP        -0.8970
      3 O2G        -1.8664   -9.8482    1.5807 O.co2     1 ACP        -0.8970
      4 O3G        -0.8096   -7.6396    0.8182 O.3       1 ACP        -0.7959
      5 PB          0.7995   -7.0350    3.7625 P.3       1 ACP         1.5194
      6 O1B         1.4128   -6.4127    2.5298 O.co2     1 ACP        -0.8958
      7 O2B         1.6326   -7.4513    4.9528 O.co2     1 ACP        -0.8958
      8 C3B        -0.1558   -8.5188    3.2150 C.3       1 ACP        -0.5612
      9 PA         -0.5272   -4.5716    4.7518 P.3       1 ACP         1.6019
     10 O1A         0.5026   -4.3627    5.8407 O.co2     1 ACP        -0.9040
     11 O2A        -1.9772   -4.2040    4.9812 O.co2     1 ACP        -0.9040
     12 O3A        -0.4587   -6.1302    4.2691 O.3       1 ACP        -0.8156
     13 O5'         0.0099   -3.8403    3.3910 O.3       1 ACP        -0.5465
     14 C5'        -0.7840   -3.8935    2.2172 C.3       1 ACP         0.2108
     15 C4'        -0.0724   -3.1466    1.1027 C.3       1 ACP         0.0552
     16 O4'        -0.8674   -3.1929   -0.0945 O.3       1 ACP        -0.3428
     17 C3'         0.1338   -1.6715    1.4027 C.3       1 ACP         0.0750
     18 O3'         1.2893   -1.4445    2.1808 O.3       1 ACP        -0.6066
     19 C2'         0.2158   -1.0724    0.0128 C.3       1 ACP         0.1185
     20 O2'         1.5141   -1.2448   -0.5513 O.3       1 ACP        -0.5858
     21 C1'        -0.7897   -1.9176   -0.7583 C.3       1 ACP         0.3826
     22 N9         -2.1040   -1.3333   -0.7704 N.pl3     1 ACP        -0.5729
     23 C8         -3.0822   -1.4850    0.1102 C.ar      1 ACP         0.3288
     24 N7         -4.1844   -0.7999   -0.1888 N.pl3     1 ACP        -0.5338
     25 C5         -3.8875   -0.1651   -1.3445 C.ar      1 ACP        -0.2581
     26 C6         -4.5941    0.6799   -2.1486 C.ar      1 ACP         0.7413
     27 N6         -5.9138    1.0274   -1.7939 N.pl3     1 ACP        -0.9512
     28 N1         -4.0421    1.1824   -3.2748 N.ar      1 ACP        -0.7699
     29 C2         -2.7637    0.7937   -3.5405 C.ar      1 ACP         0.6898
     30 N3         -1.9788   -0.0343   -2.8139 N.ar      1 ACP        -0.6800
     31 C4         -2.5915   -0.4902   -1.7174 C.ar      1 ACP         0.6129
     32 HOG3       -1.3433   -7.3295    0.0558 H         1 ACP         0.4199
     33 H3B1        0.5706   -9.2118    2.7763 H         1 ACP         0.0672
     34 H3B2       -0.5436   -8.9852    4.1274 H         1 ACP         0.0672
     35 H5'1       -0.9358   -4.9414    1.9395 H         1 ACP         0.0277
     36 H5'2       -1.7558   -3.4349    2.4258 H         1 ACP         0.0277
     37 H4'         0.8886   -3.6447    0.8779 H         1 ACP         0.1249
     38 H3'        -0.7373   -1.2359    1.9870 H         1 ACP         0.0564
     39 HO3'        1.1626   -1.9325    3.0084 H         1 ACP         0.4511
     40 H2'        -0.0384   -0.0310    0.0096 H         1 ACP         0.0716
     41 HO2'        2.1463   -0.7958    0.0370 H         1 ACP         0.4454
     42 H1'        -0.4769   -2.1002   -1.8093 H         1 ACP         0.1310
     43 H8         -3.0031   -2.1011    0.9891 H         1 ACP         0.3565
     44 HN61       -6.3271    0.6117   -0.9836 H         1 ACP         0.4414
     45 HN62       -6.4471    1.6092   -2.4083 H         1 ACP         0.4414
     46 H2         -2.3243    1.1986   -4.4449 H         1 ACP         0.0676
     47 H47        -5.0436   -0.7722    0.3425 H         1 ACP         0.5052
@<TRIPOS>BOND
     1    1    2 2
     2    1    3 1
     3    1    4 1
     4    1    8 1
     5    4   32 1
     6    5    6 2
     7    5    7 1
     8    5    8 1
     9    5   12 1
    10    8   33 1
    11    8   34 1
    12    9   10 2
    13    9   11 1
    14    9   12 1
    15    9   13 1
    16   13   14 1
    17   14   15 1
    18   14   35 1
    19   14   36 1
    20   15   16 1
    21   15   17 1
    22   15   37 1
    23   16   21 1
    24   17   18 1
    25   17   19 1
    26   17   38 1
    27   18   39 1
    28   19   20 1
    29   19   21 1
    30   19   40 1
    31   20   41 1
    32   21   22 1
    33   21   42 1
    34   22   23 ar
    35   22   31 ar
    36   23   24 ar
    37   23   43 1
    38   24   25 ar
    39   24   47 1
    40   25   26 ar
    41   25   31 ar
    42   26   27 1
    43   26   28 ar
    44   27   44 1
    45   27   45 1
    46   28   29 ar
    47   29   30 ar
    48   29   46 1
    49   30   31 ar
@<TRIPOS>SUBSTRUCTURE
     1 ACP         1 GROUP 0 A     ****
@<TRIPOS>MOLECULE
[[5-(6-amino-7,8-dihydropurin-8-ylium-9-yl)-3,4-dihydroxy-tetrahydrofuran-2-yl]methoxy-oxido-phosphoryl]oxy-[[hydroxy(oxido)phosphoryl]methyl]phosphinate
   47    49     1     0     0
SMALL
USER_CHARGES

@<TRIPOS>ATOM
      1 PG          1.8810   -2.2098   -6.9194 P.3       1 ACP         1.3755
      2 O1G         2.5385   -1.4807   -8.0679 O.co2     1 ACP        -0.8970
      3 O2G         1.0648   -1.4886   -5.8717 O.co2     1 ACP        -0.8970
      4 O3G         1.0240   -3.4710   -7.4980 O.3       1 ACP        -0.7959
      5 PB          4.6694   -2.3695   -5.2537 P.3       1 ACP         1.5194
      6 O1B         5.4265   -1.6480   -6.3441 O.co2     1 ACP        -0.8958
      7 O2B         5.3234   -3.4092   -4.3731 O.co2     1 ACP        -0.8958
      8 C3B         3.1950   -3.1617   -6.0364 C.3       1 ACP        -0.5612
      9 PA          4.4357   -0.0473   -3.4208 P.3       1 ACP         1.6019
     10 O1A         5.0077    1.0009   -4.3502 O.co2     1 ACP        -0.9040
     11 O2A         5.2684   -0.6124   -2.2904 O.co2     1 ACP        -0.9040
     12 O3A         3.8786   -1.2888   -4.3238 O.3       1 ACP        -0.8156
     13 O5'         3.0198    0.5138   -2.8245 O.3       1 ACP        -0.5465
     14 C5'         2.2816   -0.2918   -1.9206 C.3       1 ACP         0.2108
     15 C4'         2.7248    0.0226   -0.4980 C.3       1 ACP         0.0552
     16 O4'         2.4697    1.4219   -0.2462 O.3       1 ACP        -0.3428
     17 C3'         1.9404   -0.7419    0.5596 C.3       1 ACP         0.0750
     18 O3'         2.7418   -0.8086    1.7389 O.3       1 ACP        -0.6066
     19 C2'         0.7477    0.1630    0.7858 C.3       1 ACP         0.1185
     20 O2'         0.1373   -0.0577    2.0407 O.3       1 ACP        -0.5858
     21 C1'         1.3733    1.5427    0.6747 C.3       1 ACP         0.3826
     22 N9          0.4520    2.5240    0.1767 N.pl3     1 ACP        -0.5729
     23 C8          0.1928    2.8484   -1.0815 C.ar      1 ACP         0.3288
     24 N7         -0.7248    3.8048   -1.2110 N.pl3     1 ACP        -0.5338
     25 C5         -1.0765    4.1129    0.0571 C.ar      1 ACP        -0.2581
     26 C6         -1.9614    5.0063    0.5851 C.ar      1 ACP         0.7413
     27 N6         -2.7145    5.8254   -0.2810 N.pl3     1 ACP        -0.9512
     28 N1         -2.1199    5.1113    1.9228 N.ar      1 ACP        -0.7699
     29 C2         -1.3522    4.2822    2.6839 C.ar      1 ACP         0.6898
     30 N3         -0.4501    3.3660    2.2638 N.ar      1 ACP        -0.6800
     31 C4         -0.3487    3.3198    0.9322 C.ar      1 ACP         0.6129
     32 HOG3        0.2964   -3.2912   -8.1308 H         1 ACP         0.4199
     33 H3B1        3.5801   -3.8893   -6.7595 H         1 ACP         0.0672
     34 H3B2        2.6933   -3.7243   -5.2413 H         1 ACP         0.0672
     35 H5'1        1.2153   -0.0781   -2.0454 H         1 ACP         0.0277
     36 H5'2        2.4645   -1.3454   -2.1547 H         1 ACP         0.0277
     37 H4'         3.8050   -0.1388   -0.4008 H         1 ACP         0.1249
     38 H3'         1.6784   -1.7629    0.2714 H         1 ACP         0.0564
     39 HO3'        2.2232   -1.2979    2.3953 H         1 ACP         0.4511
     40 H2'        -0.0011    0.0027    0.0003 H         1 ACP         0.0716
     41 HO2'       -0.1563   -0.9855    2.0596 H         1 ACP         0.4454
     42 H1'         1.7826    1.9024    1.6451 H         1 ACP         0.1310
     43 H8          0.6728    2.3873   -1.9272 H         1 ACP         0.3565
     44 HN61       -2.5537    5.7714   -1.2667 H         1 ACP         0.4414
     45 HN62       -3.3283    6.5126    0.1080 H         1 ACP         0.4414
     46 H2         -1.4818    4.3694    3.7565 H         1 ACP         0.0676
     47 H47        -1.0701    4.2005   -2.0743 H         1 ACP         0.5052
@<TRIPOS>BOND
     1    1    2 2
     2    1    3 1
     3    1    4 1
     4    1    8 1
     5    4   32 1
     6    5    6 2
     7    5    7 1
     8    5    8 1
     9    5   12 1
    10    8   33 1
    11    8   34 1
    12    9   10 2
    13    9   11 1
    14    9   12 1
    15    9   13 1
    16   13   14 1
    17   14   15 1
    18   14   35 1
    19   14   36 1
    20   15   16 1
    21   15   17 1
    22   15   37 1
    23   16   21 1
    24   17   18 1
    25   17   19 1
    26   17   38 1
    27   18   39 1
    28   19   20 1
    29   19   21 1
    30   19   40 1
    31   20   41 1
    32   21   22 1
    33   21   42 1
    34   22   23 ar
    35   22   31 ar
    36   23   24 ar
    37   23   43 1
    38   24   25 ar
    39   24   47 1
    40   25   26 ar
    41   25   31 ar
    42   26   27 1
    43   26   28 ar
    44   27   44 1
    45   27   45 1
    46   28   29 ar
    47   29   30 ar
    48   29   46 1
    49   30   31 ar
@<TRIPOS>SUBSTRUCTURE
     1 ACP         1 GROUP 0 A     ****
@<TRIPOS>MOLECULE
[[5-(6-amino-7,8-dihydropurin-8-ylium-9-yl)-3,4-dihydroxy-tetrahydrofuran-2-yl]methoxy-oxido-phosphoryl]oxy-[[hydroxy(oxido)phosphoryl]methyl]phosphinate
   47    49     1     0     0
SMALL
USER_CHARGES

@<TRIPOS>ATOM
      1 PG         -4.4123   -1.2926    4.8351 P.3       1 ACP         1.3755
      2 O1G        -5.6642   -0.8717    4.1013 O.co2     1 ACP        -0.8970
      3 O2G        -3.0299   -0.9850    4.3074 O.co2     1 ACP        -0.8970
      4 O3G        -4.5130   -0.8209    6.3930 O.3       1 ACP        -0.7959
      5 PB         -3.1925   -4.0878    5.9637 P.3       1 ACP         1.5194
      6 O1B        -3.6346   -5.5324    5.9809 O.co2     1 ACP        -0.8958
      7 O2B        -2.8392   -3.3397    7.2285 O.co2     1 ACP        -0.8958
      8 C3B        -4.5077   -3.1180    5.1013 C.3       1 ACP        -0.5612
      9 PA         -0.5272   -4.5716    4.7518 P.3       1 ACP         1.6019
     10 O1A        -0.7035   -6.0459    4.4601 O.co2     1 ACP        -0.9040
     11 O2A         0.3040   -4.1129    5.9304 O.co2     1 ACP        -0.9040
     12 O3A        -2.0057   -3.8874    4.8639 O.3       1 ACP        -0.8156
     13 O5'         0.0099   -3.8403    3.3910 O.3       1 ACP        -0.5465
     14 C5'        -0.7840   -3.8935    2.2172 C.3       1 ACP         0.2108
     15 C4'        -0.0724   -3.1466    1.1027 C.3       1 ACP         0.0552
     16 O4'        -0.8674   -3.1929   -0.0945 O.3       1 ACP        -0.3428
     17 C3'         0.1338   -1.6715    1.4027 C.3       1 ACP         0.0750
     18 O3'         1.2893   -1.4445    2.1808 O.3       1 ACP        -0.6066
     19 C2'         0.2158   -1.0724    0.0128 C.3       1 ACP         0.1185
     20 O2'         1.5141   -1.2448   -0.5513 O.3       1 ACP        -0.5858
     21 C1'        -0.7897   -1.9176   -0.7583 C.3       1 ACP         0.3826
     22 N9         -2.1040   -1.3333   -0.7704 N.pl3     1 ACP        -0.5729
     23 C8         -3.0822   -1.4850    0.1102 C.ar      1 ACP         0.3288
     24 N7         -4.1844   -0.7999   -0.1888 N.pl3     1 ACP        -0.5338
     25 C5         -3.8875   -0.1651   -1.3445 C.ar      1 ACP        -0.2581
     26 C6         -4.5941    0.6799   -2.1486 C.ar      1 ACP         0.7413
     27 N6         -5.9138    1.0274   -1.7939 N.pl3     1 ACP        -0.9512
     28 N1         -4.0421    1.1824   -3.2748 N.ar      1 ACP        -0.7699
     29 C2         -2.7637    0.7937   -3.5405 C.ar      1 ACP         0.6898
     30 N3         -1.9788   -0.0343   -2.8139 N.ar      1 ACP        -0.6800
     31 C4         -2.5915   -0.4902   -1.7174 C.ar      1 ACP         0.6129
     32 HOG3       -4.6081    0.1359    6.5869 H         1 ACP         0.4199
     33 H3B1       -4.6213   -3.5639    4.1070 H         1 ACP         0.0672
     34 H3B2       -5.4358   -3.3060    5.6525 H         1 ACP         0.0672
     35 H5'1       -0.9358   -4.9414    1.9395 H         1 ACP         0.0277
     36 H5'2       -1.7558   -3.4349    2.4258 H         1 ACP         0.0277
     37 H4'         0.8886   -3.6447    0.8779 H         1 ACP         0.1249
     38 H3'        -0.7373   -1.2359    1.9870 H         1 ACP         0.0564
     39 HO3'        1.1626   -1.9325    3.0084 H         1 ACP         0.4511
     40 H2'        -0.0384   -0.0310    0.0096 H         1 ACP         0.0716
     41 HO2'        2.1463   -0.7958    0.0370 H         1 ACP         0.4454
     42 H1'        -0.4769   -2.1002   -1.8093 H         1 ACP         0.1310
     43 H8         -3.0031   -2.1011    0.9891 H         1 ACP         0.3565
     44 HN61       -6.3271    0.6117   -0.9836 H         1 ACP         0.4414
     45 HN62       -6.4471    1.6092   -2.4083 H         1 ACP         0.4414
     46 H2         -2.3243    1.1986   -4.4449 H         1 ACP         0.0676
     47 H47        -5.0436   -0.7722    0.3425 H         1 ACP         0.5052
@<TRIPOS>BOND
     1    1    2 2
     2    1    3 1
     3    1    4 1
     4    1    8 1
     5    4   32 1
     6    5    6 2
     7    5    7 1
     8    5    8 1
     9    5   12 1
    10    8   33 1
    11    8   34 1
    12    9   10 2
    13    9   11 1
    14    9   12 1
    15    9   13 1
    16   13   14 1
    17   14   15 1
    18   14   35 1
    19   14   36 1
    20   15   16 1
    21   15   17 1
    22   15   37 1
    23   16   21 1
    24   17   18 1
    25   17   19 1
    26   17   38 1
    27   18   39 1
    28   19   20 1
    29   19   21 1
    30   19   40 1
    31   20   41 1
    32   21   22 1
    33   21   42 1
    34   22   23 ar
    35   22   31 ar
    36   23   24 ar
    37   23   43 1
    38   24   25 ar
    39   24   47 1
    40   25   26 ar
    41   25   31 ar
    42   26   27 1
    43   26   28 ar
    44   27   44 1
    45   27   45 1
    46   28   29 ar
    47   29   30 ar
    48   29   46 1
    49   30   31 ar
@<TRIPOS>SUBSTRUCTURE
     1 ACP         1 GROUP 0 A     ****
@<TRIPOS>MOLECULE
[[5-(6-amino-7,8-dihydropurin-8-ylium-9-yl)-3,4-dihydroxy-tetrahydrofuran-2-yl]methoxy-oxido-phosphoryl]oxy-[[hydroxy(oxido)phosphoryl]methyl]phosphinate
   47    49     1     0     0
SMALL
USER_CHARGES

@<TRIPOS>ATOM
      1 PG         -3.8467   -5.8189   -1.7501 P.3       1 ACP         1.3755
      2 O1G        -4.5451   -5.0046   -2.8141 O.co2     1 ACP        -0.8970
      3 O2G        -3.4755   -7.2685   -1.9623 O.co2     1 ACP        -0.8970
      4 O3G        -2.5431   -5.0010   -1.2103 O.3       1 ACP        -0.7959
      5 PB         -4.4146   -6.5790    1.3604 P.3       1 ACP         1.5194
      6 O1B        -4.3370   -8.0597    1.0704 O.co2     1 ACP        -0.8958
      7 O2B        -5.3029   -6.0176    2.4466 O.co2     1 ACP        -0.8958
      8 C3B        -4.8721   -5.7308   -0.2162 C.3       1 ACP        -0.5612
      9 PA         -1.7138   -6.3356    2.5657 P.3       1 ACP         1.6019
     10 O1A        -1.2348   -7.7404    2.2712 O.co2     1 ACP        -0.9040
     11 O2A        -2.1612   -5.9499    3.9591 O.co2     1 ACP        -0.9040
     12 O3A        -2.9111   -5.9684    1.5177 O.3       1 ACP        -0.8156
     13 O5'        -0.5697   -5.2855    2.0524 O.3       1 ACP        -0.5465
     14 C5'        -0.7840   -3.8935    2.2172 C.3       1 ACP         0.2108
     15 C4'        -0.0724   -3.1466    1.1027 C.3       1 ACP         0.0552
     16 O4'        -0.8674   -3.1929   -0.0945 O.3       1 ACP        -0.3428
     17 C3'         0.1338   -1.6715    1.4027 C.3       1 ACP         0.0750
     18 O3'         1.2893   -1.4445    2.1808 O.3       1 ACP        -0.6066
     19 C2'         0.2158   -1.0724    0.0128 C.3       1 ACP         0.1185
     20 O2'         1.5141   -1.2448   -0.5513 O.3       1 ACP        -0.5858
     21 C1'        -0.7897   -1.9176   -0.7583 C.3       1 ACP         0.3826
     22 N9         -2.1040   -1.3333   -0.7704 N.pl3     1 ACP        -0.5729
     23 C8         -3.0822   -1.4850    0.1102 C.ar      1 ACP         0.3288
     24 N7         -4.1844   -0.7999   -0.1888 N.pl3     1 ACP        -0.5338
     25 C5         -3.8875   -0.1651   -1.3445 C.ar      1 ACP        -0.2581
     26 C6         -4.5941    0.6799   -2.1486 C.ar      1 ACP         0.7413
     27 N6         -5.9138    1.0274   -1.7939 N.pl3     1 ACP        -0.9512
     28 N1         -4.0421    1.1824   -3.2748 N.ar      1 ACP        -0.7699
     29 C2         -2.7637    0.7937   -3.5405 C.ar      1 ACP         0.6898
     30 N3         -1.9788   -0.0343   -2.8139 N.ar      1 ACP        -0.6800
     31 C4         -2.5915   -0.4902   -1.7174 C.ar      1 ACP         0.6129
     32 HOG3       -1.8383   -4.7684   -1.8516 H         1 ACP         0.4199
     33 H3B1       -5.8646   -6.1035   -0.4930 H         1 ACP         0.0672
     34 H3B2       -4.9780   -4.6683    0.0291 H         1 ACP         0.0672
     35 H5'1       -1.8599   -3.6946    2.1849 H         1 ACP         0.0277
     36 H5'2       -0.3934   -3.5881    3.1930 H         1 ACP         0.0277
     37 H4'         0.8886   -3.6447    0.8779 H         1 ACP         0.1249
     38 H3'        -0.7373   -1.2359    1.9870 H         1 ACP         0.0564
     39 HO3'        1.1626   -1.9325    3.0084 H         1 ACP         0.4511
     40 H2'        -0.0384   -0.0310    0.0096 H         1 ACP         0.0716
     41 HO2'        1.4998   -0.8412   -1.4369 H         1 ACP         0.4454
     42 H1'        -0.4769   -2.1002   -1.8093 H         1 ACP         0.1310
     43 H8         -3.0031   -2.1011    0.9891 H         1 ACP         0.3565
     44 HN61       -6.3271    0.6117   -0.9836 H         1 ACP         0.4414
     45 HN62       -6.4471    1.6092   -2.4083 H         1 ACP         0.4414
     46 H2         -2.3243    1.1986   -4.4449 H         1 ACP         0.0676
     47 H47        -5.0436   -0.7722    0.3425 H         1 ACP         0.5052
@<TRIPOS>BOND
     1    1    2 2
     2    1    3 1
     3    1    4 1
     4    1    8 1
     5    4   32 1
     6    5    6 2
     7    5    7 1
     8    5    8 1
     9    5   12 1
    10    8   33 1
    11    8   34 1
    12    9   10 2
    13    9   11 1
    14    9   12 1
    15    9   13 1
    16   13   14 1
    17   14   15 1
    18   14   35 1
    19   14   36 1
    20   15   16 1
    21   15   17 1
    22   15   37 1
    23   16   21 1
    24   17   18 1
    25   17   19 1
    26   17   38 1
    27   18   39 1
    28   19   20 1
    29   19   21 1
    30   19   40 1
    31   20   41 1
    32   21   22 1
    33   21   42 1
    34   22   23 ar
    35   22   31 ar
    36   23   24 ar
    37   23   43 1
    38   24   25 ar
    39   24   47 1
    40   25   26 ar
    41   25   31 ar
    42   26   27 1
    43   26   28 ar
    44   27   44 1
    45   27   45 1
    46   28   29 ar
    47   29   30 ar
    48   29   46 1
    49   30   31 ar
@<TRIPOS>SUBSTRUCTURE
     1 ACP         1 GROUP 0 A     ****
@<TRIPOS>MOLECULE
[[5-(6-amino-7,8-dihydropurin-8-ylium-9-yl)-3,4-dihydroxy-tetrahydrofuran-2-yl]methoxy-oxido-phosphoryl]oxy-[[hydroxy(oxido)phosphoryl]methyl]phosphinate
   47    49     1     0     0
SMALL
USER_CHARGES

@<TRIPOS>ATOM
      1 PG          1.0320   -4.2335   -3.9643 P.3       1 ACP         1.3755
      2 O1G        -0.1327   -3.3238   -3.6503 O.co2     1 ACP        -0.8970
      3 O2G         2.0732   -4.5923   -2.9292 O.co2     1 ACP        -0.8970
      4 O3G         0.4803   -5.5963   -4.6702 O.3       1 ACP        -0.7959
      5 PB          2.6814   -1.8362   -5.4163 P.3       1 ACP         1.5194
      6 O1B         1.5741   -0.8418   -5.1559 O.co2     1 ACP        -0.8958
      7 O2B         3.5747   -1.7453   -6.6320 O.co2     1 ACP        -0.8958
      8 C3B         1.9219   -3.5207   -5.4177 C.3       1 ACP        -0.5612
      9 PA          4.4771   -0.9086   -3.2433 P.3       1 ACP         1.6019
     10 O1A         5.4067   -0.2050   -4.2080 O.co2     1 ACP        -0.9040
     11 O2A         5.0200   -1.5784   -1.9995 O.co2     1 ACP        -0.9040
     12 O3A         3.5986   -2.0028   -4.0787 O.3       1 ACP        -0.8156
     13 O5'         3.2883    0.1336   -2.8242 O.3       1 ACP        -0.5465
     14 C5'         2.2816   -0.2918   -1.9206 C.3       1 ACP         0.2108
     15 C4'         2.7248    0.0226   -0.4980 C.3       1 ACP         0.0552
     16 O4'         2.4697    1.4219   -0.2462 O.3       1 ACP        -0.3428
     17 C3'         1.9404   -0.7419    0.5596 C.3       1 ACP         0.0750
     18 O3'         2.7418   -0.8086    1.7389 O.3       1 ACP        -0.6066
     19 C2'         0.7477    0.1630    0.7858 C.3       1 ACP         0.1185
     20 O2'         0.1373   -0.0577    2.0407 O.3       1 ACP        -0.5858
     21 C1'         1.3733    1.5427    0.6747 C.3       1 ACP         0.3826
     22 N9          0.4520    2.5240    0.1767 N.pl3     1 ACP        -0.5729
     23 C8          0.1928    2.8484   -1.0815 C.ar      1 ACP         0.3288
     24 N7         -0.7248    3.8048   -1.2110 N.pl3     1 ACP        -0.5338
     25 C5         -1.0765    4.1129    0.0571 C.ar      1 ACP        -0.2581
     26 C6         -1.9614    5.0063    0.5851 C.ar      1 ACP         0.7413
     27 N6         -2.7145    5.8254   -0.2810 N.pl3     1 ACP        -0.9512
     28 N1         -2.1199    5.1113    1.9228 N.ar      1 ACP        -0.7699
     29 C2         -1.3522    4.2822    2.6839 C.ar      1 ACP         0.6898
     30 N3         -0.4501    3.3660    2.2638 N.ar      1 ACP        -0.6800
     31 C4         -0.3487    3.3198    0.9322 C.ar      1 ACP         0.6129
     32 HOG3       -0.1505   -6.1586   -4.1721 H         1 ACP         0.4199
     33 H3B1        1.2084   -3.5393   -6.2490 H         1 ACP         0.0672
     34 H3B2        2.7296   -4.2189   -5.6637 H         1 ACP         0.0672
     35 H5'1        1.3500    0.2325   -2.1560 H         1 ACP         0.0277
     36 H5'2        2.1267   -1.3683   -2.0444 H         1 ACP         0.0277
     37 H4'         3.8050   -0.1388   -0.4008 H         1 ACP         0.1249
     38 H3'         1.6784   -1.7629    0.2714 H         1 ACP         0.0564
     39 HO3'        3.5554   -1.2733    1.4914 H         1 ACP         0.4511
     40 H2'        -0.0011    0.0027    0.0003 H         1 ACP         0.0716
     41 HO2'       -0.6141    0.5574    2.1082 H         1 ACP         0.4454
     42 H1'         1.7826    1.9024    1.6451 H         1 ACP         0.1310
     43 H8          0.6728    2.3873   -1.9272 H         1 ACP         0.3565
     44 HN61       -3.3968    6.4465    0.1048 H         1 ACP         0.4414
     45 HN62       -2.6221    5.7051   -1.2696 H         1 ACP         0.4414
     46 H2         -1.4818    4.3694    3.7565 H         1 ACP         0.0676
     47 H47        -1.0701    4.2005   -2.0743 H         1 ACP         0.5052
@<TRIPOS>BOND
     1    1    2 2
     2    1    3 1
     3    1    4 1
     4    1    8 1
     5    4   32 1
     6    5    6 2
     7    5    7 1
     8    5    8 1
     9    5   12 1
    10    8   33 1
    11    8   34 1
    12    9   10 2
    13    9   11 1
    14    9   12 1
    15    9   13 1
    16   13   14 1
    17   14   15 1
    18   14   35 1
    19   14   36 1
    20   15   16 1
    21   15   17 1
    22   15   37 1
    23   16   21 1
    24   17   18 1
    25   17   19 1
    26   17   38 1
    27   18   39 1
    28   19   20 1
    29   19   21 1
    30   19   40 1
    31   20   41 1
    32   21   22 1
    33   21   42 1
    34   22   23 ar
    35   22   31 ar
    36   23   24 ar
    37   23   43 1
    38   24   25 ar
    39   24   47 1
    40   25   26 ar
    41   25   31 ar
    42   26   27 1
    43   26   28 ar
    44   27   44 1
    45   27   45 1
    46   28   29 ar
    47   29   30 ar
    48   29   46 1
    49   30   31 ar
@<TRIPOS>SUBSTRUCTURE
     1 ACP         1 GROUP 0 A     ****
@<TRIPOS>MOLECULE
[[5-(6-amino-7,8-dihydropurin-8-ylium-9-yl)-3,4-dihydroxy-tetrahydrofuran-2-yl]methoxy-oxido-phosphoryl]oxy-[[hydroxy(oxido)phosphoryl]methyl]phosphinate
   47    49     1     0     0
SMALL
USER_CHARGES

@<TRIPOS>ATOM
      1 PG          6.7415    1.6670    0.7742 P.3       1 ACP         1.3755
      2 O1G         6.8467    1.4742    2.2690 O.co2     1 ACP        -0.8970
      3 O2G         5.5314    2.3026    0.1293 O.co2     1 ACP        -0.8970
      4 O3G         8.0922    2.3982    0.2258 O.3       1 ACP        -0.7959
      5 PB          6.9454   -0.2436   -1.8494 P.3       1 ACP         1.5194
      6 O1B         7.1873   -1.7136   -2.1010 O.co2     1 ACP        -0.8958
      7 O2B         7.8023    0.8316   -2.4771 O.co2     1 ACP        -0.8958
      8 C3B         6.9882    0.0180   -0.0208 C.3       1 ACP        -0.5612
      9 PA          4.4357   -0.0473   -3.4208 P.3       1 ACP         1.6019
     10 O1A         4.2723   -1.5208   -3.7237 O.co2     1 ACP        -0.9040
     11 O2A         4.9479    0.9052   -4.4795 O.co2     1 ACP        -0.9040
     12 O3A         5.3713    0.1055   -2.0911 O.3       1 ACP        -0.8156
     13 O5'         3.0198    0.5138   -2.8245 O.3       1 ACP        -0.5465
     14 C5'         2.2816   -0.2918   -1.9206 C.3       1 ACP         0.2108
     15 C4'         2.7248    0.0226   -0.4980 C.3       1 ACP         0.0552
     16 O4'         2.4697    1.4219   -0.2462 O.3       1 ACP        -0.3428
     17 C3'         1.9404   -0.7419    0.5596 C.3       1 ACP         0.0750
     18 O3'         2.7418   -0.8086    1.7389 O.3       1 ACP        -0.6066
     19 C2'         0.7477    0.1630    0.7858 C.3       1 ACP         0.1185
     20 O2'         0.1373   -0.0577    2.0407 O.3       1 ACP        -0.5858
     21 C1'         1.3733    1.5427    0.6747 C.3       1 ACP         0.3826
     22 N9          0.4520    2.5240    0.1767 N.pl3     1 ACP        -0.5729
     23 C8          0.1928    2.8484   -1.0815 C.ar      1 ACP         0.3288
     24 N7         -0.7248    3.8048   -1.2110 N.pl3     1 ACP        -0.5338
     25 C5         -1.0765    4.1129    0.0571 C.ar      1 ACP        -0.2581
     26 C6         -1.9614    5.0063    0.5851 C.ar      1 ACP         0.7413
     27 N6         -2.7145    5.8254   -0.2810 N.pl3     1 ACP        -0.9512
     28 N1         -2.1199    5.1113    1.9228 N.ar      1 ACP        -0.7699
     29 C2         -1.3522    4.2822    2.6839 C.ar      1 ACP         0.6898
     30 N3         -0.4501    3.3660    2.2638 N.ar      1 ACP        -0.6800
     31 C4         -0.3487    3.3198    0.9322 C.ar      1 ACP         0.6129
     32 HOG3        8.3200    3.2849    0.5781 H         1 ACP         0.4199
     33 H3B1        6.2242   -0.6415    0.4056 H         1 ACP         0.0672
     34 H3B2        7.9635   -0.3496    0.3169 H         1 ACP         0.0672
     35 H5'1        1.2153   -0.0781   -2.0454 H         1 ACP         0.0277
     36 H5'2        2.4645   -1.3454   -2.1547 H         1 ACP         0.0277
     37 H4'         3.8050   -0.1388   -0.4008 H         1 ACP         0.1249
     38 H3'         1.6784   -1.7629    0.2714 H         1 ACP         0.0564
     39 HO3'        2.2232   -1.2979    2.3953 H         1 ACP         0.4511
     40 H2'        -0.0011    0.0027    0.0003 H         1 ACP         0.0716
     41 HO2'       -0.6141    0.5574    2.1082 H         1 ACP         0.4454
     42 H1'         1.7826    1.9024    1.6451 H         1 ACP         0.1310
     43 H8          0.6728    2.3873   -1.9272 H         1 ACP         0.3565
     44 HN61       -2.5537    5.7714   -1.2667 H         1 ACP         0.4414
     45 HN62       -3.3283    6.5126    0.1080 H         1 ACP         0.4414
     46 H2         -1.4818    4.3694    3.7565 H         1 ACP         0.0676
     47 H47        -1.0701    4.2005   -2.0743 H         1 ACP         0.5052
@<TRIPOS>BOND
     1    1    2 2
     2    1    3 1
     3    1    4 1
     4    1    8 1
     5    4   32 1
     6    5    6 2
     7    5    7 1
     8    5    8 1
     9    5   12 1
    10    8   33 1
    11    8   34 1
    12    9   10 2
    13    9   11 1
    14    9   12 1
    15    9   13 1
    16   13   14 1
    17   14   15 1
    18   14   35 1
    19   14   36 1
    20   15   16 1
    21   15   17 1
    22   15   37 1
    23   16   21 1
    24   17   18 1
    25   17   19 1
    26   17   38 1
    27   18   39 1
    28   19   20 1
    29   19   21 1
    30   19   40 1
    31   20   41 1
    32   21   22 1
    33   21   42 1
    34   22   23 ar
    35   22   31 ar
    36   23   24 ar
    37   23   43 1
    38   24   25 ar
    39   24   47 1
    40   25   26 ar
    41   25   31 ar
    42   26   27 1
    43   26   28 ar
    44   27   44 1
    45   27   45 1
    46   28   29 ar
    47   29   30 ar
    48   29   46 1
    49   30   31 ar
@<TRIPOS>SUBSTRUCTURE
     1 ACP         1 GROUP 0 A     ****
@<TRIPOS>MOLECULE
[[5-(6-amino-7,8-dihydropurin-8-ylium-9-yl)-3,4-dihydroxy-tetrahydrofuran-2-yl]methoxy-oxido-phosphoryl]oxy-[[hydroxy(oxido)phosphoryl]methyl]phosphinate
   47    49     1     0     0
SMALL
USER_CHARGES

@<TRIPOS>ATOM
      1 PG         -0.7696   -1.5853   -5.2862 P.3       1 ACP         1.3755
      2 O1G        -1.3462   -2.8691   -5.8357 O.co2     1 ACP        -0.8970
      3 O2G        -1.6457   -0.4669   -4.7706 O.co2     1 ACP        -0.8970
      4 O3G         0.3697   -1.9358   -4.1731 O.3       1 ACP        -0.7959
      5 PB          1.2661    0.7115   -6.3614 P.3       1 ACP         1.5194
      6 O1B         0.2513    1.8037   -6.1166 O.co2     1 ACP        -0.8958
      7 O2B         2.2826    0.7934   -7.4769 O.co2     1 ACP        -0.8958
      8 C3B         0.3342   -0.8686   -6.5824 C.3       1 ACP        -0.5612
      9 PA          2.9215    1.2532   -3.9587 P.3       1 ACP         1.6019
     10 O1A         2.0230    2.2933   -3.3258 O.co2     1 ACP        -0.9040
     11 O2A         4.1836    1.6642   -4.6857 O.co2     1 ACP        -0.9040
     12 O3A         2.0199    0.3363   -4.9653 O.3       1 ACP        -0.8156
     13 O5'         3.2883    0.1336   -2.8242 O.3       1 ACP        -0.5465
     14 C5'         2.2816   -0.2918   -1.9206 C.3       1 ACP         0.2108
     15 C4'         2.7248    0.0226   -0.4980 C.3       1 ACP         0.0552
     16 O4'         2.4697    1.4219   -0.2462 O.3       1 ACP        -0.3428
     17 C3'         1.9404   -0.7419    0.5596 C.3       1 ACP         0.0750
     18 O3'         2.7418   -0.8086    1.7389 O.3       1 ACP        -0.6066
     19 C2'         0.7477    0.1630    0.7858 C.3       1 ACP         0.1185
     20 O2'         0.1373   -0.0577    2.0407 O.3       1 ACP        -0.5858
     21 C1'         1.3733    1.5427    0.6747 C.3       1 ACP         0.3826
     22 N9          0.4520    2.5240    0.1767 N.pl3     1 ACP        -0.5729
     23 C8         -0.2172    2.5216   -0.9668 C.ar      1 ACP         0.3288
     24 N7         -1.0011    3.5855   -1.1321 N.pl3     1 ACP        -0.5338
     25 C5         -0.8184    4.3200   -0.0123 C.ar      1 ACP        -0.2581
     26 C6         -1.3349    5.5079    0.4144 C.ar      1 ACP         0.7413
     27 N6         -2.2567    6.1930   -0.4036 N.pl3     1 ACP        -0.9512
     28 N1         -0.9716    6.0291    1.6069 N.ar      1 ACP        -0.7699
     29 C2         -0.0765    5.3009    2.3312 C.ar      1 ACP         0.6898
     30 N3          0.4933    4.1191    2.0023 N.ar      1 ACP        -0.6800
     31 C4          0.0865    3.6675    0.8123 C.ar      1 ACP         0.6129
     32 HOG3        0.1070   -2.4522   -3.3815 H         1 ACP         0.4199
     33 H3B1       -0.2892   -0.7398   -7.4742 H         1 ACP         0.0672
     34 H3B2        1.0831   -1.6341   -6.8142 H         1 ACP         0.0672
     35 H5'1        1.3500    0.2325   -2.1560 H         1 ACP         0.0277
     36 H5'2        2.1267   -1.3683   -2.0444 H         1 ACP         0.0277
     37 H4'         3.8050   -0.1388   -0.4008 H         1 ACP         0.1249
     38 H3'         1.6784   -1.7629    0.2714 H         1 ACP         0.0564
     39 HO3'        2.2232   -1.2979    2.3953 H         1 ACP         0.4511
     40 H2'        -0.0011    0.0027    0.0003 H         1 ACP         0.0716
     41 HO2'       -0.6141    0.5574    2.1082 H         1 ACP         0.4454
     42 H1'         1.7826    1.9024    1.6451 H         1 ACP         0.1310
     43 H8         -0.1423    1.7373   -1.6999 H         1 ACP         0.3565
     44 HN61       -2.4811    5.8206   -1.3042 H         1 ACP         0.4414
     45 HN62       -2.5986    7.0863   -0.1113 H         1 ACP         0.4414
     46 H2          0.2128    5.7222    3.2871 H         1 ACP         0.0676
     47 H47        -1.5947    3.7835   -1.9255 H         1 ACP         0.5052
@<TRIPOS>BOND
     1    1    2 2
     2    1    3 1
     3    1    4 1
     4    1    8 1
     5    4   32 1
     6    5    6 2
     7    5    7 1
     8    5    8 1
     9    5   12 1
    10    8   33 1
    11    8   34 1
    12    9   10 2
    13    9   11 1
    14    9   12 1
    15    9   13 1
    16   13   14 1
    17   14   15 1
    18   14   35 1
    19   14   36 1
    20   15   16 1
    21   15   17 1
    22   15   37 1
    23   16   21 1
    24   17   18 1
    25   17   19 1
    26   17   38 1
    27   18   39 1
    28   19   20 1
    29   19   21 1
    30   19   40 1
    31   20   41 1
    32   21   22 1
    33   21   42 1
    34   22   23 ar
    35   22   31 ar
    36   23   24 ar
    37   23   43 1
    38   24   25 ar
    39   24   47 1
    40   25   26 ar
    41   25   31 ar
    42   26   27 1
    43   26   28 ar
    44   27   44 1
    45   27   45 1
    46   28   29 ar
    47   29   30 ar
    48   29   46 1
    49   30   31 ar
@<TRIPOS>SUBSTRUCTURE
     1 ACP         1 GROUP 0 A     ****
@<TRIPOS>MOLECULE
[[5-(6-amino-7,8-dihydropurin-8-ylium-9-yl)-3,4-dihydroxy-tetrahydrofuran-2-yl]methoxy-oxido-phosphoryl]oxy-[[hydroxy(oxido)phosphoryl]methyl]phosphinate
   47    49     1     0     0
SMALL
USER_CHARGES

@<TRIPOS>ATOM
      1 PG          5.9947    1.5527   -3.9419 P.3       1 ACP         1.3755
      2 O1G         5.7915    2.0183   -2.5189 O.co2     1 ACP        -0.8970
      3 O2G         4.8824    1.5855   -4.9646 O.co2     1 ACP        -0.8970
      4 O3G         7.3207    2.2711   -4.5629 O.3       1 ACP        -0.7959
      5 PB          5.7071   -1.5745   -3.0977 P.3       1 ACP         1.5194
      6 O1B         5.4960   -1.2202   -1.6442 O.co2     1 ACP        -0.8958
      7 O2B         6.3847   -2.8569   -3.5227 O.co2     1 ACP        -0.8958
      8 C3B         6.6340   -0.1791   -3.8773 C.3       1 ACP        -0.5612
      9 PA          2.8591   -2.1299   -3.7201 P.3       1 ACP         1.6019
     10 O1A         3.0727   -3.6280   -3.7234 O.co2     1 ACP        -0.9040
     11 O2A         1.8686   -1.4903   -4.6689 O.co2     1 ACP        -0.9040
     12 O3A         4.3077   -1.4018   -3.9162 O.3       1 ACP        -0.8156
     13 O5'         2.5237   -1.6631   -2.1889 O.3       1 ACP        -0.5465
     14 C5'         2.2816   -0.2918   -1.9206 C.3       1 ACP         0.2108
     15 C4'         2.7248    0.0226   -0.4980 C.3       1 ACP         0.0552
     16 O4'         2.4697    1.4219   -0.2462 O.3       1 ACP        -0.3428
     17 C3'         1.9404   -0.7419    0.5596 C.3       1 ACP         0.0750
     18 O3'         2.7418   -0.8086    1.7389 O.3       1 ACP        -0.6066
     19 C2'         0.7477    0.1630    0.7858 C.3       1 ACP         0.1185
     20 O2'         0.1373   -0.0577    2.0407 O.3       1 ACP        -0.5858
     21 C1'         1.3733    1.5427    0.6747 C.3       1 ACP         0.3826
     22 N9          0.4520    2.5240    0.1767 N.pl3     1 ACP        -0.5729
     23 C8          0.1928    2.8484   -1.0815 C.ar      1 ACP         0.3288
     24 N7         -0.7248    3.8048   -1.2110 N.pl3     1 ACP        -0.5338
     25 C5         -1.0765    4.1129    0.0571 C.ar      1 ACP        -0.2581
     26 C6         -1.9614    5.0063    0.5851 C.ar      1 ACP         0.7413
     27 N6         -2.7145    5.8254   -0.2810 N.pl3     1 ACP        -0.9512
     28 N1         -2.1199    5.1113    1.9228 N.ar      1 ACP        -0.7699
     29 C2         -1.3522    4.2822    2.6839 C.ar      1 ACP         0.6898
     30 N3         -0.4501    3.3660    2.2638 N.ar      1 ACP        -0.6800
     31 C4         -0.3487    3.3198    0.9322 C.ar      1 ACP         0.6129
     32 HOG3        7.3417    3.2505   -4.6136 H         1 ACP         0.4199
     33 H3B1        7.6025   -0.1260   -3.3677 H         1 ACP         0.0672
     34 H3B2        6.8251   -0.4812   -4.9130 H         1 ACP         0.0672
     35 H5'1        2.8429    0.3140   -2.6391 H         1 ACP         0.0277
     36 H5'2        1.2125   -0.0906   -2.0420 H         1 ACP         0.0277
     37 H4'         3.8050   -0.1388   -0.4008 H         1 ACP         0.1249
     38 H3'         1.6784   -1.7629    0.2714 H         1 ACP         0.0564
     39 HO3'        3.5554   -1.2733    1.4914 H         1 ACP         0.4511
     40 H2'        -0.0011    0.0027    0.0003 H         1 ACP         0.0716
     41 HO2'       -0.1563   -0.9855    2.0596 H         1 ACP         0.4454
     42 H1'         1.7826    1.9024    1.6451 H         1 ACP         0.1310
     43 H8          0.6728    2.3873   -1.9272 H         1 ACP         0.3565
     44 HN61       -2.5537    5.7714   -1.2667 H         1 ACP         0.4414
     45 HN62       -3.3283    6.5126    0.1080 H         1 ACP         0.4414
     46 H2         -1.4818    4.3694    3.7565 H         1 ACP         0.0676
     47 H47        -1.0701    4.2005   -2.0743 H         1 ACP         0.5052
@<TRIPOS>BOND
     1    1    2 2
     2    1    3 1
     3    1    4 1
     4    1    8 1
     5    4   32 1
     6    5    6 2
     7    5    7 1
     8    5    8 1
     9    5   12 1
    10    8   33 1
    11    8   34 1
    12    9   10 2
    13    9   11 1
    14    9   12 1
    15    9   13 1
    16   13   14 1
    17   14   15 1
    18   14   35 1
    19   14   36 1
    20   15   16 1
    21   15   17 1
    22   15   37 1
    23   16   21 1
    24   17   18 1
    25   17   19 1
    26   17   38 1
    27   18   39 1
    28   19   20 1
    29   19   21 1
    30   19   40 1
    31   20   41 1
    32   21   22 1
    33   21   42 1
    34   22   23 ar
    35   22   31 ar
    36   23   24 ar
    37   23   43 1
    38   24   25 ar
    39   24   47 1
    40   25   26 ar
    41   25   31 ar
    42   26   27 1
    43   26   28 ar
    44   27   44 1
    45   27   45 1
    46   28   29 ar
    47   29   30 ar
    48   29   46 1
    49   30   31 ar
@<TRIPOS>SUBSTRUCTURE
     1 ACP         1 GROUP 0 A     ****
@<TRIPOS>MOLECULE
[[5-(6-amino-7,8-dihydropurin-8-ylium-9-yl)-3,4-dihydroxy-tetrahydrofuran-2-yl]methoxy-oxido-phosphoryl]oxy-[[hydroxy(oxido)phosphoryl]methyl]phosphinate
   47    49     1     0     0
SMALL
USER_CHARGES

@<TRIPOS>ATOM
      1 PG          1.5944   -5.6238    6.6470 P.3       1 ACP         1.3755
      2 O1G         1.9562   -6.0887    8.0383 O.co2     1 ACP        -0.8970
      3 O2G         0.3968   -4.7410    6.3809 O.co2     1 ACP        -0.8970
      4 O3G         2.9105   -4.9784    5.9320 O.3       1 ACP        -0.7959
      5 PB          0.9836   -7.0520    3.7900 P.3       1 ACP         1.5194
      6 O1B         0.9388   -8.4729    3.2785 O.co2     1 ACP        -0.8958
      7 O2B         1.8599   -5.9962    3.1563 O.co2     1 ACP        -0.8958
      8 C3B         1.4208   -7.1243    5.5838 C.3       1 ACP        -0.5612
      9 PA         -1.7212   -6.2756    2.8475 P.3       1 ACP         1.6019
     10 O1A        -2.8677   -5.5415    3.5081 O.co2     1 ACP        -0.9040
     11 O2A        -1.9532   -7.5972    2.1476 O.co2     1 ACP        -0.9040
     12 O3A        -0.5331   -6.4756    3.9500 O.3       1 ACP        -0.8156
     13 O5'        -0.9728   -5.2427    1.8237 O.3       1 ACP        -0.5465
     14 C5'        -0.7840   -3.8935    2.2172 C.3       1 ACP         0.2108
     15 C4'        -0.0724   -3.1466    1.1027 C.3       1 ACP         0.0552
     16 O4'        -0.8674   -3.1929   -0.0945 O.3       1 ACP        -0.3428
     17 C3'         0.1338   -1.6715    1.4027 C.3       1 ACP         0.0750
     18 O3'         1.2893   -1.4445    2.1808 O.3       1 ACP        -0.6066
     19 C2'         0.2158   -1.0724    0.0128 C.3       1 ACP         0.1185
     20 O2'         1.5141   -1.2448   -0.5513 O.3       1 ACP        -0.5858
     21 C1'        -0.7897   -1.9176   -0.7583 C.3       1 ACP         0.3826
     22 N9         -2.1040   -1.3333   -0.7704 N.pl3     1 ACP        -0.5729
     23 C8         -3.0822   -1.4850    0.1102 C.ar      1 ACP         0.3288
     24 N7         -4.1844   -0.7999   -0.1888 N.pl3     1 ACP        -0.5338
     25 C5         -3.8875   -0.1651   -1.3445 C.ar      1 ACP        -0.2581
     26 C6         -4.5941    0.6799   -2.1486 C.ar      1 ACP         0.7413
     27 N6         -5.9138    1.0274   -1.7939 N.pl3     1 ACP        -0.9512
     28 N1         -4.0421    1.1824   -3.2748 N.ar      1 ACP        -0.7699
     29 C2         -2.7637    0.7937   -3.5405 C.ar      1 ACP         0.6898
     30 N3         -1.9788   -0.0343   -2.8139 N.ar      1 ACP        -0.6800
     31 C4         -2.5915   -0.4902   -1.7174 C.ar      1 ACP         0.6129
     32 HOG3        3.3383   -4.2025    6.3528 H         1 ACP         0.4199
     33 H3B1        0.6604   -7.7500    6.0642 H         1 ACP         0.0672
     34 H3B2        2.3733   -7.6625    5.6438 H         1 ACP         0.0672
     35 H5'1       -1.7614   -3.4427    2.4167 H         1 ACP         0.0277
     36 H5'2       -0.1870   -3.8723    3.1344 H         1 ACP         0.0277
     37 H4'         0.8886   -3.6447    0.8779 H         1 ACP         0.1249
     38 H3'        -0.7373   -1.2359    1.9870 H         1 ACP         0.0564
     39 HO3'        1.3408   -0.4870    2.3219 H         1 ACP         0.4511
     40 H2'        -0.0384   -0.0310    0.0096 H         1 ACP         0.0716
     41 HO2'        2.1463   -0.7958    0.0370 H         1 ACP         0.4454
     42 H1'        -0.4769   -2.1002   -1.8093 H         1 ACP         0.1310
     43 H8         -3.0031   -2.1011    0.9891 H         1 ACP         0.3565
     44 HN61       -6.4144    1.6837   -2.3586 H         1 ACP         0.4414
     45 HN62       -6.2940    0.6861   -0.9341 H         1 ACP         0.4414
     46 H2         -2.3243    1.1986   -4.4449 H         1 ACP         0.0676
     47 H47        -5.0436   -0.7722    0.3425 H         1 ACP         0.5052
@<TRIPOS>BOND
     1    1    2 2
     2    1    3 1
     3    1    4 1
     4    1    8 1
     5    4   32 1
     6    5    6 2
     7    5    7 1
     8    5    8 1
     9    5   12 1
    10    8   33 1
    11    8   34 1
    12    9   10 2
    13    9   11 1
    14    9   12 1
    15    9   13 1
    16   13   14 1
    17   14   15 1
    18   14   35 1
    19   14   36 1
    20   15   16 1
    21   15   17 1
    22   15   37 1
    23   16   21 1
    24   17   18 1
    25   17   19 1
    26   17   38 1
    27   18   39 1
    28   19   20 1
    29   19   21 1
    30   19   40 1
    31   20   41 1
    32   21   22 1
    33   21   42 1
    34   22   23 ar
    35   22   31 ar
    36   23   24 ar
    37   23   43 1
    38   24   25 ar
    39   24   47 1
    40   25   26 ar
    41   25   31 ar
    42   26   27 1
    43   26   28 ar
    44   27   44 1
    45   27   45 1
    46   28   29 ar
    47   29   30 ar
    48   29   46 1
    49   30   31 ar
@<TRIPOS>SUBSTRUCTURE
     1 ACP         1 GROUP 0 A     ****
@<TRIPOS>MOLECULE
[[5-(6-amino-7,8-dihydropurin-8-ylium-9-yl)-3,4-dihydroxy-tetrahydrofuran-2-yl]methoxy-oxido-phosphoryl]oxy-[[hydroxy(oxido)phosphoryl]methyl]phosphinate
   47    49     1     0     0
SMALL
USER_CHARGES

@<TRIPOS>ATOM
      1 PG         -4.0274   -3.5850    5.4821 P.3       1 ACP         1.3755
      2 O1G        -2.5991   -3.8468    5.8997 O.co2     1 ACP        -0.8970
      3 O2G        -5.0752   -3.1048    6.4597 O.co2     1 ACP        -0.8970
      4 O3G        -4.0391   -2.6256    4.1634 O.3       1 ACP        -0.7959
      5 PB         -3.9180   -5.8914    3.1922 P.3       1 ACP         1.5194
      6 O1B        -3.9931   -4.8700    2.0815 O.co2     1 ACP        -0.8958
      7 O2B        -4.5033   -7.2777    3.0511 O.co2     1 ACP        -0.8958
      8 C3B        -4.6716   -5.1278    4.6965 C.3       1 ACP        -0.5612
      9 PA         -1.0048   -6.4109    2.9679 P.3       1 ACP         1.6019
     10 O1A        -1.2176   -7.7423    2.2809 O.co2     1 ACP        -0.9040
     11 O2A         0.1532   -6.2121    3.9218 O.co2     1 ACP        -0.9040
     12 O3A        -2.3855   -6.0011    3.7378 O.3       1 ACP        -0.8156
     13 O5'        -0.9728   -5.2427    1.8237 O.3       1 ACP        -0.5465
     14 C5'        -0.7840   -3.8935    2.2172 C.3       1 ACP         0.2108
     15 C4'        -0.0724   -3.1466    1.1027 C.3       1 ACP         0.0552
     16 O4'        -0.8674   -3.1929   -0.0945 O.3       1 ACP        -0.3428
     17 C3'         0.1338   -1.6715    1.4027 C.3       1 ACP         0.0750
     18 O3'         1.2893   -1.4445    2.1808 O.3       1 ACP        -0.6066
     19 C2'         0.2158   -1.0724    0.0128 C.3       1 ACP         0.1185
     20 O2'         1.5141   -1.2448   -0.5513 O.3       1 ACP        -0.5858
     21 C1'        -0.7897   -1.9176   -0.7583 C.3       1 ACP         0.3826
     22 N9         -2.1040   -1.3333   -0.7704 N.pl3     1 ACP        -0.5729
     23 C8         -3.0822   -1.4850    0.1102 C.ar      1 ACP         0.3288
     24 N7         -4.1844   -0.7999   -0.1888 N.pl3     1 ACP        -0.5338
     25 C5         -3.8875   -0.1651   -1.3445 C.ar      1 ACP        -0.2581
     26 C6         -4.5941    0.6799   -2.1486 C.ar      1 ACP         0.7413
     27 N6         -5.9138    1.0274   -1.7939 N.pl3     1 ACP        -0.9512
     28 N1         -4.0421    1.1824   -3.2748 N.ar      1 ACP        -0.7699
     29 C2         -2.7637    0.7937   -3.5405 C.ar      1 ACP         0.6898
     30 N3         -1.9788   -0.0343   -2.8139 N.ar      1 ACP        -0.6800
     31 C4         -2.5915   -0.4902   -1.7174 C.ar      1 ACP         0.6129
     32 HOG3       -3.6294   -1.7367    4.2279 H         1 ACP         0.4199
     33 H3B1       -5.7206   -4.9280    4.4515 H         1 ACP         0.0672
     34 H3B2       -4.6581   -5.9027    5.4710 H         1 ACP         0.0672
     35 H5'1       -1.7614   -3.4427    2.4167 H         1 ACP         0.0277
     36 H5'2       -0.1870   -3.8723    3.1344 H         1 ACP         0.0277
     37 H4'         0.8886   -3.6447    0.8779 H         1 ACP         0.1249
     38 H3'        -0.7373   -1.2359    1.9870 H         1 ACP         0.0564
     39 HO3'        1.3408   -0.4870    2.3219 H         1 ACP         0.4511
     40 H2'        -0.0384   -0.0310    0.0096 H         1 ACP         0.0716
     41 HO2'        2.1463   -0.7958    0.0370 H         1 ACP         0.4454
     42 H1'        -0.4769   -2.1002   -1.8093 H         1 ACP         0.1310
     43 H8         -3.0031   -2.1011    0.9891 H         1 ACP         0.3565
     44 HN61       -6.3271    0.6117   -0.9836 H         1 ACP         0.4414
     45 HN62       -6.4471    1.6092   -2.4083 H         1 ACP         0.4414
     46 H2         -2.3243    1.1986   -4.4449 H         1 ACP         0.0676
     47 H47        -5.0436   -0.7722    0.3425 H         1 ACP         0.5052
@<TRIPOS>BOND
     1    1    2 2
     2    1    3 1
     3    1    4 1
     4    1    8 1
     5    4   32 1
     6    5    6 2
     7    5    7 1
     8    5    8 1
     9    5   12 1
    10    8   33 1
    11    8   34 1
    12    9   10 2
    13    9   11 1
    14    9   12 1
    15    9   13 1
    16   13   14 1
    17   14   15 1
    18   14   35 1
    19   14   36 1
    20   15   16 1
    21   15   17 1
    22   15   37 1
    23   16   21 1
    24   17   18 1
    25   17   19 1
    26   17   38 1
    27   18   39 1
    28   19   20 1
    29   19   21 1
    30   19   40 1
    31   20   41 1
    32   21   22 1
    33   21   42 1
    34   22   23 ar
    35   22   31 ar
    36   23   24 ar
    37   23   43 1
    38   24   25 ar
    39   24   47 1
    40   25   26 ar
    41   25   31 ar
    42   26   27 1
    43   26   28 ar
    44   27   44 1
    45   27   45 1
    46   28   29 ar
    47   29   30 ar
    48   29   46 1
    49   30   31 ar
@<TRIPOS>SUBSTRUCTURE
     1 ACP         1 GROUP 0 A     ****
@<TRIPOS>MOLECULE
[[5-(6-amino-7,8-dihydropurin-8-ylium-9-yl)-3,4-dihydroxy-tetrahydrofuran-2-yl]methoxy-oxido-phosphoryl]oxy-[[hydroxy(oxido)phosphoryl]methyl]phosphinate
   47    49     1     0     0
SMALL
USER_CHARGES

@<TRIPOS>ATOM
      1 PG         -1.3288   -1.3352   -4.5948 P.3       1 ACP         1.3755
      2 O1G        -0.2013   -2.3338   -4.4747 O.co2     1 ACP        -0.8970
      3 O2G        -2.6901   -1.7204   -5.1263 O.co2     1 ACP        -0.8970
      4 O3G        -1.5056   -0.5448   -3.1792 O.3       1 ACP        -0.7959
      5 PB          0.7311    1.1214   -5.1398 P.3       1 ACP         1.5194
      6 O1B         0.4103    1.7589   -3.8082 O.co2     1 ACP        -0.8958
      7 O2B         1.1129    1.9393   -6.3521 O.co2     1 ACP        -0.8958
      8 C3B        -0.7174    0.0777   -5.6157 C.3       1 ACP        -0.5612
      9 PA          3.3324   -0.0529   -4.3266 P.3       1 ACP         1.6019
     10 O1A         4.1264    0.9964   -5.0738 O.co2     1 ACP        -0.9040
     11 O2A         3.8347   -1.4774   -4.2320 O.co2     1 ACP        -0.9040
     12 O3A         1.8151   -0.0782   -4.9299 O.3       1 ACP        -0.8156
     13 O5'         3.0198    0.5138   -2.8245 O.3       1 ACP        -0.5465
     14 C5'         2.2816   -0.2918   -1.9206 C.3       1 ACP         0.2108
     15 C4'         2.7248    0.0226   -0.4980 C.3       1 ACP         0.0552
     16 O4'         2.4697    1.4219   -0.2462 O.3       1 ACP        -0.3428
     17 C3'         1.9404   -0.7419    0.5596 C.3       1 ACP         0.0750
     18 O3'         2.7418   -0.8086    1.7389 O.3       1 ACP        -0.6066
     19 C2'         0.7477    0.1630    0.7858 C.3       1 ACP         0.1185
     20 O2'         0.1373   -0.0577    2.0407 O.3       1 ACP        -0.5858
     21 C1'         1.3733    1.5427    0.6747 C.3       1 ACP         0.3826
     22 N9          0.4520    2.5240    0.1767 N.pl3     1 ACP        -0.5729
     23 C8         -0.8602    2.5861    0.3496 C.ar      1 ACP         0.3288
     24 N7         -1.4308    3.6326   -0.2443 N.pl3     1 ACP        -0.5338
     25 C5         -0.4080    4.2856   -0.8394 C.ar      1 ACP        -0.2581
     26 C6         -0.3432    5.4196   -1.5943 C.ar      1 ACP         0.7413
     27 N6         -1.5276    6.1333   -1.8702 N.pl3     1 ACP        -0.9512
     28 N1          0.8395    5.8603   -2.0764 N.ar      1 ACP        -0.7699
     29 C2          1.9319    5.1095   -1.7617 C.ar      1 ACP         0.6898
     30 N3          1.9773    3.9761   -1.0249 N.ar      1 ACP        -0.6800
     31 C4          0.7724    3.6031   -0.5836 C.ar      1 ACP         0.6129
     32 HOG3       -1.7164   -1.0662   -2.3755 H         1 ACP         0.4199
     33 H3B1       -1.5676    0.7593   -5.7300 H         1 ACP         0.0672
     34 H3B2       -0.4878   -0.3285   -6.6070 H         1 ACP         0.0672
     35 H5'1        1.2153   -0.0781   -2.0454 H         1 ACP         0.0277
     36 H5'2        2.4645   -1.3454   -2.1547 H         1 ACP         0.0277
     37 H4'         3.8050   -0.1388   -0.4008 H         1 ACP         0.1249
     38 H3'         1.6784   -1.7629    0.2714 H         1 ACP         0.0564
     39 HO3'        2.2232   -1.2979    2.3953 H         1 ACP         0.4511
     40 H2'        -0.0011    0.0027    0.0003 H         1 ACP         0.0716
     41 HO2'       -0.1563   -0.9855    2.0596 H         1 ACP         0.4454
     42 H1'         1.7826    1.9024    1.6451 H         1 ACP         0.1310
     43 H8         -1.4217    1.8638    0.9164 H         1 ACP         0.3565
     44 HN61       -2.4023    5.7711   -1.5477 H         1 ACP         0.4414
     45 HN62       -1.4857    6.9379   -2.4627 H         1 ACP         0.4414
     46 H2          2.8789    5.4660   -2.1503 H         1 ACP         0.0676
     47 H47        -2.4129    3.8706   -0.2402 H         1 ACP         0.5052
@<TRIPOS>BOND
     1    1    2 2
     2    1    3 1
     3    1    4 1
     4    1    8 1
     5    4   32 1
     6    5    6 2
     7    5    7 1
     8    5    8 1
     9    5   12 1
    10    8   33 1
    11    8   34 1
    12    9   10 2
    13    9   11 1
    14    9   12 1
    15    9   13 1
    16   13   14 1
    17   14   15 1
    18   14   35 1
    19   14   36 1
    20   15   16 1
    21   15   17 1
    22   15   37 1
    23   16   21 1
    24   17   18 1
    25   17   19 1
    26   17   38 1
    27   18   39 1
    28   19   20 1
    29   19   21 1
    30   19   40 1
    31   20   41 1
    32   21   22 1
    33   21   42 1
    34   22   23 ar
    35   22   31 ar
    36   23   24 ar
    37   23   43 1
    38   24   25 ar
    39   24   47 1
    40   25   26 ar
    41   25   31 ar
    42   26   27 1
    43   26   28 ar
    44   27   44 1
    45   27   45 1
    46   28   29 ar
    47   29   30 ar
    48   29   46 1
    49   30   31 ar
@<TRIPOS>SUBSTRUCTURE
     1 ACP         1 GROUP 0 A     ****
@<TRIPOS>MOLECULE
[[5-(6-amino-7,8-dihydropurin-8-ylium-9-yl)-3,4-dihydroxy-tetrahydrofuran-2-yl]methoxy-oxido-phosphoryl]oxy-[[hydroxy(oxido)phosphoryl]methyl]phosphinate
   47    49     1     0     0
SMALL
USER_CHARGES

@<TRIPOS>ATOM
      1 PG         -0.6929    0.2880   -5.3978 P.3       1 ACP         1.3755
      2 O1G        -1.8421    0.6083   -6.3249 O.co2     1 ACP        -0.8970
      3 O2G         0.1933    1.3646   -4.8149 O.co2     1 ACP        -0.8970
      4 O3G        -1.2185   -0.6861   -4.1999 O.3       1 ACP        -0.7959
      5 PB          1.9472   -1.6070   -5.5155 P.3       1 ACP         1.5194
      6 O1B         2.8642   -0.4423   -5.2234 O.co2     1 ACP        -0.8958
      7 O2B         2.3792   -2.7761   -6.3704 O.co2     1 ACP        -0.8958
      8 C3B         0.4036   -0.9204   -6.2637 C.3       1 ACP        -0.5612
      9 PA          2.0054   -2.7672   -2.7847 P.3       1 ACP         1.6019
     10 O1A         2.9308   -3.8905   -3.1989 O.co2     1 ACP        -0.9040
     11 O2A         0.9346   -2.9961   -1.7400 O.co2     1 ACP        -0.9040
     12 O3A         1.2984   -2.1600   -4.1258 O.3       1 ACP        -0.8156
     13 O5'         2.9202   -1.4821   -2.3524 O.3       1 ACP        -0.5465
     14 C5'         2.2816   -0.2918   -1.9206 C.3       1 ACP         0.2108
     15 C4'         2.7248    0.0226   -0.4980 C.3       1 ACP         0.0552
     16 O4'         2.4697    1.4219   -0.2462 O.3       1 ACP        -0.3428
     17 C3'         1.9404   -0.7419    0.5596 C.3       1 ACP         0.0750
     18 O3'         2.7418   -0.8086    1.7389 O.3       1 ACP        -0.6066
     19 C2'         0.7477    0.1630    0.7858 C.3       1 ACP         0.1185
     20 O2'         0.1373   -0.0577    2.0407 O.3       1 ACP        -0.5858
     21 C1'         1.3733    1.5427    0.6747 C.3       1 ACP         0.3826
     22 N9          0.4520    2.5240    0.1767 N.pl3     1 ACP        -0.5729
     23 C8          0.1928    2.8484   -1.0815 C.ar      1 ACP         0.3288
     24 N7         -0.7248    3.8048   -1.2110 N.pl3     1 ACP        -0.5338
     25 C5         -1.0765    4.1129    0.0571 C.ar      1 ACP        -0.2581
     26 C6         -1.9614    5.0063    0.5851 C.ar      1 ACP         0.7413
     27 N6         -2.7145    5.8254   -0.2810 N.pl3     1 ACP        -0.9512
     28 N1         -2.1199    5.1113    1.9228 N.ar      1 ACP        -0.7699
     29 C2         -1.3522    4.2822    2.6839 C.ar      1 ACP         0.6898
     30 N3         -0.4501    3.3660    2.2638 N.ar      1 ACP        -0.6800
     31 C4         -0.3487    3.3198    0.9322 C.ar      1 ACP         0.6129
     32 HOG3       -1.9326   -0.3604   -3.6116 H         1 ACP         0.4199
     33 H3B1        0.7000   -0.4415   -7.2035 H         1 ACP         0.0672
     34 H3B2       -0.2214   -1.7834   -6.5188 H         1 ACP         0.0672
     35 H5'1        2.5581    0.5235   -2.5966 H         1 ACP         0.0277
     36 H5'2        1.1974   -0.4370   -1.9607 H         1 ACP         0.0277
     37 H4'         3.8050   -0.1388   -0.4008 H         1 ACP         0.1249
     38 H3'         1.6784   -1.7629    0.2714 H         1 ACP         0.0564
     39 HO3'        2.2232   -1.2979    2.3953 H         1 ACP         0.4511
     40 H2'        -0.0011    0.0027    0.0003 H         1 ACP         0.0716
     41 HO2'       -0.1563   -0.9855    2.0596 H         1 ACP         0.4454
     42 H1'         1.7826    1.9024    1.6451 H         1 ACP         0.1310
     43 H8          0.6728    2.3873   -1.9272 H         1 ACP         0.3565
     44 HN61       -2.5537    5.7714   -1.2667 H         1 ACP         0.4414
     45 HN62       -3.3283    6.5126    0.1080 H         1 ACP         0.4414
     46 H2         -1.4818    4.3694    3.7565 H         1 ACP         0.0676
     47 H47        -1.0701    4.2005   -2.0743 H         1 ACP         0.5052
@<TRIPOS>BOND
     1    1    2 2
     2    1    3 1
     3    1    4 1
     4    1    8 1
     5    4   32 1
     6    5    6 2
     7    5    7 1
     8    5    8 1
     9    5   12 1
    10    8   33 1
    11    8   34 1
    12    9   10 2
    13    9   11 1
    14    9   12 1
    15    9   13 1
    16   13   14 1
    17   14   15 1
    18   14   35 1
    19   14   36 1
    20   15   16 1
    21   15   17 1
    22   15   37 1
    23   16   21 1
    24   17   18 1
    25   17   19 1
    26   17   38 1
    27   18   39 1
    28   19   20 1
    29   19   21 1
    30   19   40 1
    31   20   41 1
    32   21   22 1
    33   21   42 1
    34   22   23 ar
    35   22   31 ar
    36   23   24 ar
    37   23   43 1
    38   24   25 ar
    39   24   47 1
    40   25   26 ar
    41   25   31 ar
    42   26   27 1
    43   26   28 ar
    44   27   44 1
    45   27   45 1
    46   28   29 ar
    47   29   30 ar
    48   29   46 1
    49   30   31 ar
@<TRIPOS>SUBSTRUCTURE
     1 ACP         1 GROUP 0 A     ****
@<TRIPOS>MOLECULE
[[5-(6-amino-7,8-dihydropurin-8-ylium-9-yl)-3,4-dihydroxy-tetrahydrofuran-2-yl]methoxy-oxido-phosphoryl]oxy-[[hydroxy(oxido)phosphoryl]methyl]phosphinate
   47    49     1     0     0
SMALL
USER_CHARGES

@<TRIPOS>ATOM
      1 PG          3.0735   -3.5314   -6.1952 P.3       1 ACP         1.3755
      2 O1G         2.8936   -5.0258   -6.0640 O.co2     1 ACP        -0.8970
      3 O2G         4.0017   -2.7515   -5.2927 O.co2     1 ACP        -0.8970
      4 O3G         3.3931   -3.1585   -7.7504 O.3       1 ACP        -0.7959
      5 PB          1.1205   -0.9312   -6.1772 P.3       1 ACP         1.5194
      6 O1B        -0.3648   -0.6948   -6.0334 O.co2     1 ACP        -0.8958
      7 O2B         1.9045   -0.4236   -7.3654 O.co2     1 ACP        -0.8958
      8 C3B         1.4022   -2.7543   -6.0716 C.3       1 ACP        -0.5612
      9 PA          2.3321    0.9617   -4.2393 P.3       1 ACP         1.6019
     10 O1A         1.0835    1.7582   -3.9287 O.co2     1 ACP        -0.9040
     11 O2A         3.3949    1.5221   -5.1596 O.co2     1 ACP        -0.9040
     12 O3A         1.8825   -0.5045   -4.8004 O.3       1 ACP        -0.8156
     13 O5'         3.0198    0.5138   -2.8245 O.3       1 ACP        -0.5465
     14 C5'         2.2816   -0.2918   -1.9206 C.3       1 ACP         0.2108
     15 C4'         2.7248    0.0226   -0.4980 C.3       1 ACP         0.0552
     16 O4'         2.4697    1.4219   -0.2462 O.3       1 ACP        -0.3428
     17 C3'         1.9404   -0.7419    0.5596 C.3       1 ACP         0.0750
     18 O3'         2.7418   -0.8086    1.7389 O.3       1 ACP        -0.6066
     19 C2'         0.7477    0.1630    0.7858 C.3       1 ACP         0.1185
     20 O2'         0.1373   -0.0577    2.0407 O.3       1 ACP        -0.5858
     21 C1'         1.3733    1.5427    0.6747 C.3       1 ACP         0.3826
     22 N9          0.4520    2.5240    0.1767 N.pl3     1 ACP        -0.5729
     23 C8         -0.2172    2.5216   -0.9668 C.ar      1 ACP         0.3288
     24 N7         -1.0011    3.5855   -1.1321 N.pl3     1 ACP        -0.5338
     25 C5         -0.8184    4.3200   -0.0123 C.ar      1 ACP        -0.2581
     26 C6         -1.3349    5.5079    0.4144 C.ar      1 ACP         0.7413
     27 N6         -2.2567    6.1930   -0.4036 N.pl3     1 ACP        -0.9512
     28 N1         -0.9716    6.0291    1.6069 N.ar      1 ACP        -0.7699
     29 C2         -0.0765    5.3009    2.3312 C.ar      1 ACP         0.6898
     30 N3          0.4933    4.1191    2.0023 N.ar      1 ACP        -0.6800
     31 C4          0.0865    3.6675    0.8123 C.ar      1 ACP         0.6129
     32 HOG3        4.1910   -3.5454   -8.1697 H         1 ACP         0.4199
     33 H3B1        0.9877   -3.0779   -5.1104 H         1 ACP         0.0672
     34 H3B2        0.7889   -3.2036   -6.8606 H         1 ACP         0.0672
     35 H5'1        1.2153   -0.0781   -2.0454 H         1 ACP         0.0277
     36 H5'2        2.4645   -1.3454   -2.1547 H         1 ACP         0.0277
     37 H4'         3.8050   -0.1388   -0.4008 H         1 ACP         0.1249
     38 H3'         1.6784   -1.7629    0.2714 H         1 ACP         0.0564
     39 HO3'        3.5554   -1.2733    1.4914 H         1 ACP         0.4511
     40 H2'        -0.0011    0.0027    0.0003 H         1 ACP         0.0716
     41 HO2'       -0.1563   -0.9855    2.0596 H         1 ACP         0.4454
     42 H1'         1.7826    1.9024    1.6451 H         1 ACP         0.1310
     43 H8         -0.1423    1.7373   -1.6999 H         1 ACP         0.3565
     44 HN61       -2.4811    5.8206   -1.3042 H         1 ACP         0.4414
     45 HN62       -2.5986    7.0863   -0.1113 H         1 ACP         0.4414
     46 H2          0.2128    5.7222    3.2871 H         1 ACP         0.0676
     47 H47        -1.5947    3.7835   -1.9255 H         1 ACP         0.5052
@<TRIPOS>BOND
     1    1    2 2
     2    1    3 1
     3    1    4 1
     4    1    8 1
     5    4   32 1
     6    5    6 2
     7    5    7 1
     8    5    8 1
     9    5   12 1
    10    8   33 1
    11    8   34 1
    12    9   10 2
    13    9   11 1
    14    9   12 1
    15    9   13 1
    16   13   14 1
    17   14   15 1
    18   14   35 1
    19   14   36 1
    20   15   16 1
    21   15   17 1
    22   15   37 1
    23   16   21 1
    24   17   18 1
    25   17   19 1
    26   17   38 1
    27   18   39 1
    28   19   20 1
    29   19   21 1
    30   19   40 1
    31   20   41 1
    32   21   22 1
    33   21   42 1
    34   22   23 ar
    35   22   31 ar
    36   23   24 ar
    37   23   43 1
    38   24   25 ar
    39   24   47 1
    40   25   26 ar
    41   25   31 ar
    42   26   27 1
    43   26   28 ar
    44   27   44 1
    45   27   45 1
    46   28   29 ar
    47   29   30 ar
    48   29   46 1
    49   30   31 ar
@<TRIPOS>SUBSTRUCTURE
     1 ACP         1 GROUP 0 A     ****
@<TRIPOS>MOLECULE
[[5-(6-amino-7,8-dihydropurin-8-ylium-9-yl)-3,4-dihydroxy-tetrahydrofuran-2-yl]methoxy-oxido-phosphoryl]oxy-[[hydroxy(oxido)phosphoryl]methyl]phosphinate
   47    49     1     0     0
SMALL
USER_CHARGES

@<TRIPOS>ATOM
      1 PG         -1.0325   -2.4920   -6.9723 P.3       1 ACP         1.3755
      2 O1G        -1.9594   -1.7465   -7.9039 O.co2     1 ACP        -0.8970
      3 O2G        -1.5219   -3.1294   -5.6922 O.co2     1 ACP        -0.8970
      4 O3G        -0.1713   -3.5840   -7.8243 O.3       1 ACP        -0.7959
      5 PB          1.7357   -1.8251   -5.4014 P.3       1 ACP         1.5194
      6 O1B         2.6542   -0.6309   -5.2874 O.co2     1 ACP        -0.8958
      7 O2B         2.2314   -3.1814   -5.8472 O.co2     1 ACP        -0.8958
      8 C3B         0.3493   -1.3500   -6.5268 C.3       1 ACP        -0.5612
      9 PA          1.2676   -2.6330   -2.5845 P.3       1 ACP         1.6019
     10 O1A         1.8014   -4.0298   -2.8163 O.co2     1 ACP        -0.9040
     11 O2A         0.1253   -2.3943   -1.6209 O.co2     1 ACP        -0.9040
     12 O3A         0.8686   -1.9867   -4.0302 O.3       1 ACP        -0.8156
     13 O5'         2.5237   -1.6631   -2.1889 O.3       1 ACP        -0.5465
     14 C5'         2.2816   -0.2918   -1.9206 C.3       1 ACP         0.2108
     15 C4'         2.7248    0.0226   -0.4980 C.3       1 ACP         0.0552
     16 O4'         2.4697    1.4219   -0.2462 O.3       1 ACP        -0.3428
     17 C3'         1.9404   -0.7419    0.5596 C.3       1 ACP         0.0750
     18 O3'         2.7418   -0.8086    1.7389 O.3       1 ACP        -0.6066
     19 C2'         0.7477    0.1630    0.7858 C.3       1 ACP         0.1185
     20 O2'         0.1373   -0.0577    2.0407 O.3       1 ACP        -0.5858
     21 C1'         1.3733    1.5427    0.6747 C.3       1 ACP         0.3826
     22 N9          0.4520    2.5240    0.1767 N.pl3     1 ACP        -0.5729
     23 C8          0.1928    2.8484   -1.0815 C.ar      1 ACP         0.3288
     24 N7         -0.7248    3.8048   -1.2110 N.pl3     1 ACP        -0.5338
     25 C5         -1.0765    4.1129    0.0571 C.ar      1 ACP        -0.2581
     26 C6         -1.9614    5.0063    0.5851 C.ar      1 ACP         0.7413
     27 N6         -2.7145    5.8254   -0.2810 N.pl3     1 ACP        -0.9512
     28 N1         -2.1199    5.1113    1.9228 N.ar      1 ACP        -0.7699
     29 C2         -1.3522    4.2822    2.6839 C.ar      1 ACP         0.6898
     30 N3         -0.4501    3.3660    2.2638 N.ar      1 ACP        -0.6800
     31 C4         -0.3487    3.3198    0.9322 C.ar      1 ACP         0.6129
     32 HOG3       -0.6554   -4.2847   -8.3109 H         1 ACP         0.4199
     33 H3B1       -0.1200   -0.4640   -6.0851 H         1 ACP         0.0672
     34 H3B2        0.8145   -1.0389   -7.4687 H         1 ACP         0.0672
     35 H5'1        2.8429    0.3140   -2.6391 H         1 ACP         0.0277
     36 H5'2        1.2125   -0.0906   -2.0420 H         1 ACP         0.0277
     37 H4'         3.8050   -0.1388   -0.4008 H         1 ACP         0.1249
     38 H3'         1.6784   -1.7629    0.2714 H         1 ACP         0.0564
     39 HO3'        2.2232   -1.2979    2.3953 H         1 ACP         0.4511
     40 H2'        -0.0011    0.0027    0.0003 H         1 ACP         0.0716
     41 HO2'       -0.6141    0.5574    2.1082 H         1 ACP         0.4454
     42 H1'         1.7826    1.9024    1.6451 H         1 ACP         0.1310
     43 H8          0.6728    2.3873   -1.9272 H         1 ACP         0.3565
     44 HN61       -2.5537    5.7714   -1.2667 H         1 ACP         0.4414
     45 HN62       -3.3283    6.5126    0.1080 H         1 ACP         0.4414
     46 H2         -1.4818    4.3694    3.7565 H         1 ACP         0.0676
     47 H47        -1.0701    4.2005   -2.0743 H         1 ACP         0.5052
@<TRIPOS>BOND
     1    1    2 2
     2    1    3 1
     3    1    4 1
     4    1    8 1
     5    4   32 1
     6    5    6 2
     7    5    7 1
     8    5    8 1
     9    5   12 1
    10    8   33 1
    11    8   34 1
    12    9   10 2
    13    9   11 1
    14    9   12 1
    15    9   13 1
    16   13   14 1
    17   14   15 1
    18   14   35 1
    19   14   36 1
    20   15   16 1
    21   15   17 1
    22   15   37 1
    23   16   21 1
    24   17   18 1
    25   17   19 1
    26   17   38 1
    27   18   39 1
    28   19   20 1
    29   19   21 1
    30   19   40 1
    31   20   41 1
    32   21   22 1
    33   21   42 1
    34   22   23 ar
    35   22   31 ar
    36   23   24 ar
    37   23   43 1
    38   24   25 ar
    39   24   47 1
    40   25   26 ar
    41   25   31 ar
    42   26   27 1
    43   26   28 ar
    44   27   44 1
    45   27   45 1
    46   28   29 ar
    47   29   30 ar
    48   29   46 1
    49   30   31 ar
@<TRIPOS>SUBSTRUCTURE
     1 ACP         1 GROUP 0 A     ****
@<TRIPOS>MOLECULE
[[5-(6-amino-7,8-dihydropurin-8-ylium-9-yl)-3,4-dihydroxy-tetrahydrofuran-2-yl]methoxy-oxido-phosphoryl]oxy-[[hydroxy(oxido)phosphoryl]methyl]phosphinate
   47    49     1     0     0
SMALL
USER_CHARGES

@<TRIPOS>ATOM
      1 PG         -2.0972   -1.8427   -2.7754 P.3       1 ACP         1.3755
      2 O1G        -2.4670   -0.8699   -3.8708 O.co2     1 ACP        -0.8970
      3 O2G        -1.1574   -1.4689   -1.6524 O.co2     1 ACP        -0.8970
      4 O3G        -3.4544   -2.4952   -2.1493 O.3       1 ACP        -0.7959
      5 PB          0.0763   -3.3491   -4.6681 P.3       1 ACP         1.5194
      6 O1B        -0.2180   -2.4312   -5.8315 O.co2     1 ACP        -0.8958
      7 O2B         0.4990   -4.7868   -4.8647 O.co2     1 ACP        -0.8958
      8 C3B        -1.4180   -3.3598   -3.5813 C.3       1 ACP        -0.5612
      9 PA          2.6179   -2.0499   -3.8561 P.3       1 ACP         1.6019
     10 O1A         2.5535   -0.8721   -4.8040 O.co2     1 ACP        -0.9040
     11 O2A         3.5312   -3.2219   -4.1438 O.co2     1 ACP        -0.9040
     12 O3A         1.1027   -2.6171   -3.6342 O.3       1 ACP        -0.8156
     13 O5'         2.9202   -1.4821   -2.3524 O.3       1 ACP        -0.5465
     14 C5'         2.2816   -0.2918   -1.9206 C.3       1 ACP         0.2108
     15 C4'         2.7248    0.0226   -0.4980 C.3       1 ACP         0.0552
     16 O4'         2.4697    1.4219   -0.2462 O.3       1 ACP        -0.3428
     17 C3'         1.9404   -0.7419    0.5596 C.3       1 ACP         0.0750
     18 O3'         2.7418   -0.8086    1.7389 O.3       1 ACP        -0.6066
     19 C2'         0.7477    0.1630    0.7858 C.3       1 ACP         0.1185
     20 O2'         0.1373   -0.0577    2.0407 O.3       1 ACP        -0.5858
     21 C1'         1.3733    1.5427    0.6747 C.3       1 ACP         0.3826
     22 N9          0.4520    2.5240    0.1767 N.pl3     1 ACP        -0.5729
     23 C8          0.1928    2.8484   -1.0815 C.ar      1 ACP         0.3288
     24 N7         -0.7248    3.8048   -1.2110 N.pl3     1 ACP        -0.5338
     25 C5         -1.0765    4.1129    0.0571 C.ar      1 ACP        -0.2581
     26 C6         -1.9614    5.0063    0.5851 C.ar      1 ACP         0.7413
     27 N6         -2.7145    5.8254   -0.2810 N.pl3     1 ACP        -0.9512
     28 N1         -2.1199    5.1113    1.9228 N.ar      1 ACP        -0.7699
     29 C2         -1.3522    4.2822    2.6839 C.ar      1 ACP         0.6898
     30 N3         -0.4501    3.3660    2.2638 N.ar      1 ACP        -0.6800
     31 C4         -0.3487    3.3198    0.9322 C.ar      1 ACP         0.6129
     32 HOG3       -4.1158   -1.8969   -1.7410 H         1 ACP         0.4199
     33 H3B1       -2.2352   -3.7766   -4.1805 H         1 ACP         0.0672
     34 H3B2       -1.2048   -4.0728   -2.7772 H         1 ACP         0.0672
     35 H5'1        2.5581    0.5235   -2.5966 H         1 ACP         0.0277
     36 H5'2        1.1974   -0.4370   -1.9607 H         1 ACP         0.0277
     37 H4'         3.8050   -0.1388   -0.4008 H         1 ACP         0.1249
     38 H3'         1.6784   -1.7629    0.2714 H         1 ACP         0.0564
     39 HO3'        3.5554   -1.2733    1.4914 H         1 ACP         0.4511
     40 H2'        -0.0011    0.0027    0.0003 H         1 ACP         0.0716
     41 HO2'       -0.1563   -0.9855    2.0596 H         1 ACP         0.4454
     42 H1'         1.7826    1.9024    1.6451 H         1 ACP         0.1310
     43 H8          0.6728    2.3873   -1.9272 H         1 ACP         0.3565
     44 HN61       -2.5537    5.7714   -1.2667 H         1 ACP         0.4414
     45 HN62       -3.3283    6.5126    0.1080 H         1 ACP         0.4414
     46 H2         -1.4818    4.3694    3.7565 H         1 ACP         0.0676
     47 H47        -1.0701    4.2005   -2.0743 H         1 ACP         0.5052
@<TRIPOS>BOND
     1    1    2 2
     2    1    3 1
     3    1    4 1
     4    1    8 1
     5    4   32 1
     6    5    6 2
     7    5    7 1
     8    5    8 1
     9    5   12 1
    10    8   33 1
    11    8   34 1
    12    9   10 2
    13    9   11 1
    14    9   12 1
    15    9   13 1
    16   13   14 1
    17   14   15 1
    18   14   35 1
    19   14   36 1
    20   15   16 1
    21   15   17 1
    22   15   37 1
    23   16   21 1
    24   17   18 1
    25   17   19 1
    26   17   38 1
    27   18   39 1
    28   19   20 1
    29   19   21 1
    30   19   40 1
    31   20   41 1
    32   21   22 1
    33   21   42 1
    34   22   23 ar
    35   22   31 ar
    36   23   24 ar
    37   23   43 1
    38   24   25 ar
    39   24   47 1
    40   25   26 ar
    41   25   31 ar
    42   26   27 1
    43   26   28 ar
    44   27   44 1
    45   27   45 1
    46   28   29 ar
    47   29   30 ar
    48   29   46 1
    49   30   31 ar
@<TRIPOS>SUBSTRUCTURE
     1 ACP         1 GROUP 0 A     ****
@<TRIPOS>MOLECULE
[[5-(6-amino-7,8-dihydropurin-8-ylium-9-yl)-3,4-dihydroxy-tetrahydrofuran-2-yl]methoxy-oxido-phosphoryl]oxy-[[hydroxy(oxido)phosphoryl]methyl]phosphinate
   47    49     1     0     0
SMALL
USER_CHARGES

@<TRIPOS>ATOM
      1 PG          3.2358    1.1595   -6.3130 P.3       1 ACP         1.3755
      2 O1G         4.4622    1.9887   -6.0110 O.co2     1 ACP        -0.8970
      3 O2G         2.1052    1.0065   -5.3218 O.co2     1 ACP        -0.8970
      4 O3G         2.6283    1.5984   -7.7615 O.3       1 ACP        -0.7959
      5 PB          4.7841   -1.6168   -5.6274 P.3       1 ACP         1.5194
      6 O1B         6.0663   -0.8863   -5.3033 O.co2     1 ACP        -0.8958
      7 O2B         4.7781   -3.0099   -6.2136 O.co2     1 ACP        -0.8958
      8 C3B         3.8066   -0.5381   -6.7653 C.3       1 ACP        -0.5612
      9 PA          3.9654   -2.1111   -2.8181 P.3       1 ACP         1.6019
     10 O1A         5.0498   -1.2970   -2.1465 O.co2     1 ACP        -0.9040
     11 O2A         4.0486   -3.6217   -2.8585 O.co2     1 ACP        -0.9040
     12 O3A         3.7791   -1.5622   -4.3449 O.3       1 ACP        -0.8156
     13 O5'         2.5237   -1.6631   -2.1889 O.3       1 ACP        -0.5465
     14 C5'         2.2816   -0.2918   -1.9206 C.3       1 ACP         0.2108
     15 C4'         2.7248    0.0226   -0.4980 C.3       1 ACP         0.0552
     16 O4'         2.4697    1.4219   -0.2462 O.3       1 ACP        -0.3428
     17 C3'         1.9404   -0.7419    0.5596 C.3       1 ACP         0.0750
     18 O3'         2.7418   -0.8086    1.7389 O.3       1 ACP        -0.6066
     19 C2'         0.7477    0.1630    0.7858 C.3       1 ACP         0.1185
     20 O2'         0.1373   -0.0577    2.0407 O.3       1 ACP        -0.5858
     21 C1'         1.3733    1.5427    0.6747 C.3       1 ACP         0.3826
     22 N9          0.4520    2.5240    0.1767 N.pl3     1 ACP        -0.5729
     23 C8          0.1928    2.8484   -1.0815 C.ar      1 ACP         0.3288
     24 N7         -0.7248    3.8048   -1.2110 N.pl3     1 ACP        -0.5338
     25 C5         -1.0765    4.1129    0.0571 C.ar      1 ACP        -0.2581
     26 C6         -1.9614    5.0063    0.5851 C.ar      1 ACP         0.7413
     27 N6         -2.7145    5.8254   -0.2810 N.pl3     1 ACP        -0.9512
     28 N1         -2.1199    5.1113    1.9228 N.ar      1 ACP        -0.7699
     29 C2         -1.3522    4.2822    2.6839 C.ar      1 ACP         0.6898
     30 N3         -0.4501    3.3660    2.2638 N.ar      1 ACP        -0.6800
     31 C4         -0.3487    3.3198    0.9322 C.ar      1 ACP         0.6129
     32 HOG3        2.3400    2.5277   -7.8857 H         1 ACP         0.4199
     33 H3B1        4.4048   -0.4242   -7.6762 H         1 ACP         0.0672
     34 H3B2        2.9103   -1.1092   -7.0316 H         1 ACP         0.0672
     35 H5'1        2.8429    0.3140   -2.6391 H         1 ACP         0.0277
     36 H5'2        1.2125   -0.0906   -2.0420 H         1 ACP         0.0277
     37 H4'         3.8050   -0.1388   -0.4008 H         1 ACP         0.1249
     38 H3'         1.6784   -1.7629    0.2714 H         1 ACP         0.0564
     39 HO3'        2.2232   -1.2979    2.3953 H         1 ACP         0.4511
     40 H2'        -0.0011    0.0027    0.0003 H         1 ACP         0.0716
     41 HO2'       -0.6141    0.5574    2.1082 H         1 ACP         0.4454
     42 H1'         1.7826    1.9024    1.6451 H         1 ACP         0.1310
     43 H8          0.6728    2.3873   -1.9272 H         1 ACP         0.3565
     44 HN61       -2.5537    5.7714   -1.2667 H         1 ACP         0.4414
     45 HN62       -3.3283    6.5126    0.1080 H         1 ACP         0.4414
     46 H2         -1.4818    4.3694    3.7565 H         1 ACP         0.0676
     47 H47        -1.0701    4.2005   -2.0743 H         1 ACP         0.5052
@<TRIPOS>BOND
     1    1    2 2
     2    1    3 1
     3    1    4 1
     4    1    8 1
     5    4   32 1
     6    5    6 2
     7    5    7 1
     8    5    8 1
     9    5   12 1
    10    8   33 1
    11    8   34 1
    12    9   10 2
    13    9   11 1
    14    9   12 1
    15    9   13 1
    16   13   14 1
    17   14   15 1
    18   14   35 1
    19   14   36 1
    20   15   16 1
    21   15   17 1
    22   15   37 1
    23   16   21 1
    24   17   18 1
    25   17   19 1
    26   17   38 1
    27   18   39 1
    28   19   20 1
    29   19   21 1
    30   19   40 1
    31   20   41 1
    32   21   22 1
    33   21   42 1
    34   22   23 ar
    35   22   31 ar
    36   23   24 ar
    37   23   43 1
    38   24   25 ar
    39   24   47 1
    40   25   26 ar
    41   25   31 ar
    42   26   27 1
    43   26   28 ar
    44   27   44 1
    45   27   45 1
    46   28   29 ar
    47   29   30 ar
    48   29   46 1
    49   30   31 ar
@<TRIPOS>SUBSTRUCTURE
     1 ACP         1 GROUP 0 A     ****
@<TRIPOS>MOLECULE
[[5-(6-amino-7,8-dihydropurin-8-ylium-9-yl)-3,4-dihydroxy-tetrahydrofuran-2-yl]methoxy-oxido-phosphoryl]oxy-[[hydroxy(oxido)phosphoryl]methyl]phosphinate
   47    49     1     0     0
SMALL
USER_CHARGES

@<TRIPOS>ATOM
      1 PG          3.2422   -4.7065    4.5492 P.3       1 ACP         1.3755
      2 O1G         2.7654   -4.3629    5.9412 O.co2     1 ACP        -0.8970
      3 O2G         2.6877   -4.0257    3.3191 O.co2     1 ACP        -0.8970
      4 O3G         4.8718   -4.6550    4.5066 O.3       1 ACP        -0.7959
      5 PB          1.3890   -7.3762    4.4324 P.3       1 ACP         1.5194
      6 O1B         0.8481   -7.1287    5.8212 O.co2     1 ACP        -0.8958
      7 O2B         1.5665   -8.7697    3.8748 O.co2     1 ACP        -0.8958
      8 C3B         3.0257   -6.5263    4.3177 C.3       1 ACP        -0.5612
      9 PA         -1.0048   -6.4109    2.9679 P.3       1 ACP         1.6019
     10 O1A        -1.7723   -5.8853    4.1614 O.co2     1 ACP        -0.9040
     11 O2A        -1.3819   -7.7301    2.3290 O.co2     1 ACP        -0.9040
     12 O3A         0.5812   -6.4578    3.3543 O.3       1 ACP        -0.8156
     13 O5'        -0.9728   -5.2427    1.8237 O.3       1 ACP        -0.5465
     14 C5'        -0.7840   -3.8935    2.2172 C.3       1 ACP         0.2108
     15 C4'        -0.0724   -3.1466    1.1027 C.3       1 ACP         0.0552
     16 O4'        -0.8674   -3.1929   -0.0945 O.3       1 ACP        -0.3428
     17 C3'         0.1338   -1.6715    1.4027 C.3       1 ACP         0.0750
     18 O3'         1.2893   -1.4445    2.1808 O.3       1 ACP        -0.6066
     19 C2'         0.2158   -1.0724    0.0128 C.3       1 ACP         0.1185
     20 O2'         1.5141   -1.2448   -0.5513 O.3       1 ACP        -0.5858
     21 C1'        -0.7897   -1.9176   -0.7583 C.3       1 ACP         0.3826
     22 N9         -2.1040   -1.3333   -0.7704 N.pl3     1 ACP        -0.5729
     23 C8         -3.0822   -1.4850    0.1102 C.ar      1 ACP         0.3288
     24 N7         -4.1844   -0.7999   -0.1888 N.pl3     1 ACP        -0.5338
     25 C5         -3.8875   -0.1651   -1.3445 C.ar      1 ACP        -0.2581
     26 C6         -4.5941    0.6799   -2.1486 C.ar      1 ACP         0.7413
     27 N6         -5.9138    1.0274   -1.7939 N.pl3     1 ACP        -0.9512
     28 N1         -4.0421    1.1824   -3.2748 N.ar      1 ACP        -0.7699
     29 C2         -2.7637    0.7937   -3.5405 C.ar      1 ACP         0.6898
     30 N3         -1.9788   -0.0343   -2.8139 N.ar      1 ACP        -0.6800
     31 C4         -2.5915   -0.4902   -1.7174 C.ar      1 ACP         0.6129
     32 HOG3        5.3189   -3.8094    4.7237 H         1 ACP         0.4199
     33 H3B1        3.6774   -7.0056    5.0565 H         1 ACP         0.0672
     34 H3B2        3.4242   -6.7653    3.3255 H         1 ACP         0.0672
     35 H5'1       -1.7614   -3.4427    2.4167 H         1 ACP         0.0277
     36 H5'2       -0.1870   -3.8723    3.1344 H         1 ACP         0.0277
     37 H4'         0.8886   -3.6447    0.8779 H         1 ACP         0.1249
     38 H3'        -0.7373   -1.2359    1.9870 H         1 ACP         0.0564
     39 HO3'        1.3408   -0.4870    2.3219 H         1 ACP         0.4511
     40 H2'        -0.0384   -0.0310    0.0096 H         1 ACP         0.0716
     41 HO2'        2.1463   -0.7958    0.0370 H         1 ACP         0.4454
     42 H1'        -0.4769   -2.1002   -1.8093 H         1 ACP         0.1310
     43 H8         -3.0031   -2.1011    0.9891 H         1 ACP         0.3565
     44 HN61       -6.3271    0.6117   -0.9836 H         1 ACP         0.4414
     45 HN62       -6.4471    1.6092   -2.4083 H         1 ACP         0.4414
     46 H2         -2.3243    1.1986   -4.4449 H         1 ACP         0.0676
     47 H47        -5.0436   -0.7722    0.3425 H         1 ACP         0.5052
@<TRIPOS>BOND
     1    1    2 2
     2    1    3 1
     3    1    4 1
     4    1    8 1
     5    4   32 1
     6    5    6 2
     7    5    7 1
     8    5    8 1
     9    5   12 1
    10    8   33 1
    11    8   34 1
    12    9   10 2
    13    9   11 1
    14    9   12 1
    15    9   13 1
    16   13   14 1
    17   14   15 1
    18   14   35 1
    19   14   36 1
    20   15   16 1
    21   15   17 1
    22   15   37 1
    23   16   21 1
    24   17   18 1
    25   17   19 1
    26   17   38 1
    27   18   39 1
    28   19   20 1
    29   19   21 1
    30   19   40 1
    31   20   41 1
    32   21   22 1
    33   21   42 1
    34   22   23 ar
    35   22   31 ar
    36   23   24 ar
    37   23   43 1
    38   24   25 ar
    39   24   47 1
    40   25   26 ar
    41   25   31 ar
    42   26   27 1
    43   26   28 ar
    44   27   44 1
    45   27   45 1
    46   28   29 ar
    47   29   30 ar
    48   29   46 1
    49   30   31 ar
@<TRIPOS>SUBSTRUCTURE
     1 ACP         1 GROUP 0 A     ****
@<TRIPOS>MOLECULE
[[5-(6-amino-7,8-dihydropurin-8-ylium-9-yl)-3,4-dihydroxy-tetrahydrofuran-2-yl]methoxy-oxido-phosphoryl]oxy-[[hydroxy(oxido)phosphoryl]methyl]phosphinate
   47    49     1     0     0
SMALL
USER_CHARGES

@<TRIPOS>ATOM
      1 PG          1.5373   -8.6453    3.1437 P.3       1 ACP         1.3755
      2 O1G         1.6842   -9.7754    2.1516 O.co2     1 ACP        -0.8970
      3 O2G         2.4684   -8.4857    4.3234 O.co2     1 ACP        -0.8970
      4 O3G         1.4352   -7.2294    2.3408 O.3       1 ACP        -0.7959
      5 PB         -0.8335   -7.5076    5.0568 P.3       1 ACP         1.5194
      6 O1B         0.0251   -7.6392    6.2929 O.co2     1 ACP        -0.8958
      7 O2B        -2.3355   -7.6711    5.0995 O.co2     1 ACP        -0.8958
      8 C3B        -0.1864   -8.7029    3.8052 C.3       1 ACP        -0.5612
      9 PA         -0.5272   -4.5716    4.7518 P.3       1 ACP         1.6019
     10 O1A         0.5026   -4.3627    5.8407 O.co2     1 ACP        -0.9040
     11 O2A        -1.9772   -4.2040    4.9812 O.co2     1 ACP        -0.9040
     12 O3A        -0.4587   -6.1302    4.2691 O.3       1 ACP        -0.8156
     13 O5'         0.0099   -3.8403    3.3910 O.3       1 ACP        -0.5465
     14 C5'        -0.7840   -3.8935    2.2172 C.3       1 ACP         0.2108
     15 C4'        -0.0724   -3.1466    1.1027 C.3       1 ACP         0.0552
     16 O4'        -0.8674   -3.1929   -0.0945 O.3       1 ACP        -0.3428
     17 C3'         0.1338   -1.6715    1.4027 C.3       1 ACP         0.0750
     18 O3'         1.2893   -1.4445    2.1808 O.3       1 ACP        -0.6066
     19 C2'         0.2158   -1.0724    0.0128 C.3       1 ACP         0.1185
     20 O2'         1.5141   -1.2448   -0.5513 O.3       1 ACP        -0.5858
     21 C1'        -0.7897   -1.9176   -0.7583 C.3       1 ACP         0.3826
     22 N9         -2.1040   -1.3333   -0.7704 N.pl3     1 ACP        -0.5729
     23 C8         -3.0822   -1.4850    0.1102 C.ar      1 ACP         0.3288
     24 N7         -4.1844   -0.7999   -0.1888 N.pl3     1 ACP        -0.5338
     25 C5         -3.8875   -0.1651   -1.3445 C.ar      1 ACP        -0.2581
     26 C6         -4.5941    0.6799   -2.1486 C.ar      1 ACP         0.7413
     27 N6         -5.9138    1.0274   -1.7939 N.pl3     1 ACP        -0.9512
     28 N1         -4.0421    1.1824   -3.2748 N.ar      1 ACP        -0.7699
     29 C2         -2.7637    0.7937   -3.5405 C.ar      1 ACP         0.6898
     30 N3         -1.9788   -0.0343   -2.8139 N.ar      1 ACP        -0.6800
     31 C4         -2.5915   -0.4902   -1.7174 C.ar      1 ACP         0.6129
     32 HOG3        2.1836   -6.9629    1.7654 H         1 ACP         0.4199
     33 H3B1       -0.3128   -9.7026    4.2355 H         1 ACP         0.0672
     34 H3B2       -0.8561   -8.6315    2.9409 H         1 ACP         0.0672
     35 H5'1       -0.9358   -4.9414    1.9395 H         1 ACP         0.0277
     36 H5'2       -1.7558   -3.4349    2.4258 H         1 ACP         0.0277
     37 H4'         0.8886   -3.6447    0.8779 H         1 ACP         0.1249
     38 H3'        -0.7373   -1.2359    1.9870 H         1 ACP         0.0564
     39 HO3'        1.1626   -1.9325    3.0084 H         1 ACP         0.4511
     40 H2'        -0.0384   -0.0310    0.0096 H         1 ACP         0.0716
     41 HO2'        2.1463   -0.7958    0.0370 H         1 ACP         0.4454
     42 H1'        -0.4769   -2.1002   -1.8093 H         1 ACP         0.1310
     43 H8         -3.0031   -2.1011    0.9891 H         1 ACP         0.3565
     44 HN61       -6.3271    0.6117   -0.9836 H         1 ACP         0.4414
     45 HN62       -6.4471    1.6092   -2.4083 H         1 ACP         0.4414
     46 H2         -2.3243    1.1986   -4.4449 H         1 ACP         0.0676
     47 H47        -5.0436   -0.7722    0.3425 H         1 ACP         0.5052
@<TRIPOS>BOND
     1    1    2 2
     2    1    3 1
     3    1    4 1
     4    1    8 1
     5    4   32 1
     6    5    6 2
     7    5    7 1
     8    5    8 1
     9    5   12 1
    10    8   33 1
    11    8   34 1
    12    9   10 2
    13    9   11 1
    14    9   12 1
    15    9   13 1
    16   13   14 1
    17   14   15 1
    18   14   35 1
    19   14   36 1
    20   15   16 1
    21   15   17 1
    22   15   37 1
    23   16   21 1
    24   17   18 1
    25   17   19 1
    26   17   38 1
    27   18   39 1
    28   19   20 1
    29   19   21 1
    30   19   40 1
    31   20   41 1
    32   21   22 1
    33   21   42 1
    34   22   23 ar
    35   22   31 ar
    36   23   24 ar
    37   23   43 1
    38   24   25 ar
    39   24   47 1
    40   25   26 ar
    41   25   31 ar
    42   26   27 1
    43   26   28 ar
    44   27   44 1
    45   27   45 1
    46   28   29 ar
    47   29   30 ar
    48   29   46 1
    49   30   31 ar
@<TRIPOS>SUBSTRUCTURE
     1 ACP         1 GROUP 0 A     ****
@<TRIPOS>MOLECULE
[[5-(6-amino-7,8-dihydropurin-8-ylium-9-yl)-3,4-dihydroxy-tetrahydrofuran-2-yl]methoxy-oxido-phosphoryl]oxy-[[hydroxy(oxido)phosphoryl]methyl]phosphinate
   47    49     1     0     0
SMALL
USER_CHARGES

@<TRIPOS>ATOM
      1 PG         -0.0876   -0.3958   -7.8972 P.3       1 ACP         1.3755
      2 O1G        -1.3147   -1.1016   -8.4254 O.co2     1 ACP        -0.8970
      3 O2G         1.2656   -1.0668   -7.8460 O.co2     1 ACP        -0.8970
      4 O3G         0.0570    1.0568   -8.6244 O.3       1 ACP        -0.7959
      5 PB          0.7311    1.1214   -5.1398 P.3       1 ACP         1.5194
      6 O1B         0.0460    1.4262   -3.8282 O.co2     1 ACP        -0.8958
      7 O2B         1.3387    2.2048   -6.0008 O.co2     1 ACP        -0.8958
      8 C3B        -0.4747    0.1964   -6.1908 C.3       1 ACP        -0.5612
      9 PA          3.3324   -0.0529   -4.3266 P.3       1 ACP         1.6019
     10 O1A         4.1264    0.9964   -5.0738 O.co2     1 ACP        -0.9040
     11 O2A         3.8347   -1.4774   -4.2320 O.co2     1 ACP        -0.9040
     12 O3A         1.8151   -0.0782   -4.9299 O.3       1 ACP        -0.8156
     13 O5'         3.0198    0.5138   -2.8245 O.3       1 ACP        -0.5465
     14 C5'         2.2816   -0.2918   -1.9206 C.3       1 ACP         0.2108
     15 C4'         2.7248    0.0226   -0.4980 C.3       1 ACP         0.0552
     16 O4'         2.4697    1.4219   -0.2462 O.3       1 ACP        -0.3428
     17 C3'         1.9404   -0.7419    0.5596 C.3       1 ACP         0.0750
     18 O3'         2.7418   -0.8086    1.7389 O.3       1 ACP        -0.6066
     19 C2'         0.7477    0.1630    0.7858 C.3       1 ACP         0.1185
     20 O2'         0.1373   -0.0577    2.0407 O.3       1 ACP        -0.5858
     21 C1'         1.3733    1.5427    0.6747 C.3       1 ACP         0.3826
     22 N9          0.4520    2.5240    0.1767 N.pl3     1 ACP        -0.5729
     23 C8          0.5305    3.2394   -0.9358 C.ar      1 ACP         0.3288
     24 N7         -0.4966    4.0680   -1.1145 N.pl3     1 ACP        -0.5338
     25 C5         -1.2879    3.8664   -0.0375 C.ar      1 ACP        -0.2581
     26 C6         -2.4754    4.4084    0.3577 C.ar      1 ACP         0.7413
     27 N6         -3.0892    5.3882   -0.4495 N.pl3     1 ACP        -0.9512
     28 N1         -3.0632    4.0158    1.5092 N.ar      1 ACP        -0.7699
     29 C2         -2.4008    3.0654    2.2262 C.ar      1 ACP         0.6898
     30 N3         -1.2259    2.4663    1.9260 N.ar      1 ACP        -0.6800
     31 C4         -0.7062    2.9047    0.7757 C.ar      1 ACP         0.6129
     32 HOG3        0.1521    1.0840   -9.6003 H         1 ACP         0.4199
     33 H3B1       -0.7666   -0.6923   -5.6204 H         1 ACP         0.0672
     34 H3B2       -1.3596    0.8369   -6.2748 H         1 ACP         0.0672
     35 H5'1        1.2153   -0.0781   -2.0454 H         1 ACP         0.0277
     36 H5'2        2.4645   -1.3454   -2.1547 H         1 ACP         0.0277
     37 H4'         3.8050   -0.1388   -0.4008 H         1 ACP         0.1249
     38 H3'         1.6784   -1.7629    0.2714 H         1 ACP         0.0564
     39 HO3'        2.2232   -1.2979    2.3953 H         1 ACP         0.4511
     40 H2'        -0.0011    0.0027    0.0003 H         1 ACP         0.0716
     41 HO2'       -0.1563   -0.9855    2.0596 H         1 ACP         0.4454
     42 H1'         1.7826    1.9024    1.6451 H         1 ACP         0.1310
     43 H8          1.3437    3.1645   -1.6367 H         1 ACP         0.3565
     44 HN61       -2.6210    5.7042   -1.2748 H         1 ACP         0.4414
     45 HN62       -3.9356    5.8187   -0.1356 H         1 ACP         0.4414
     46 H2         -2.8752    2.7532    3.1495 H         1 ACP         0.0676
     47 H47        -0.6372    4.7004   -1.8900 H         1 ACP         0.5052
@<TRIPOS>BOND
     1    1    2 2
     2    1    3 1
     3    1    4 1
     4    1    8 1
     5    4   32 1
     6    5    6 2
     7    5    7 1
     8    5    8 1
     9    5   12 1
    10    8   33 1
    11    8   34 1
    12    9   10 2
    13    9   11 1
    14    9   12 1
    15    9   13 1
    16   13   14 1
    17   14   15 1
    18   14   35 1
    19   14   36 1
    20   15   16 1
    21   15   17 1
    22   15   37 1
    23   16   21 1
    24   17   18 1
    25   17   19 1
    26   17   38 1
    27   18   39 1
    28   19   20 1
    29   19   21 1
    30   19   40 1
    31   20   41 1
    32   21   22 1
    33   21   42 1
    34   22   23 ar
    35   22   31 ar
    36   23   24 ar
    37   23   43 1
    38   24   25 ar
    39   24   47 1
    40   25   26 ar
    41   25   31 ar
    42   26   27 1
    43   26   28 ar
    44   27   44 1
    45   27   45 1
    46   28   29 ar
    47   29   30 ar
    48   29   46 1
    49   30   31 ar
@<TRIPOS>SUBSTRUCTURE
     1 ACP         1 GROUP 0 A     ****
@<TRIPOS>MOLECULE
[[5-(6-amino-7,8-dihydropurin-8-ylium-9-yl)-3,4-dihydroxy-tetrahydrofuran-2-yl]methoxy-oxido-phosphoryl]oxy-[[hydroxy(oxido)phosphoryl]methyl]phosphinate
   47    49     1     0     0
SMALL
USER_CHARGES

@<TRIPOS>ATOM
      1 PG          2.1988   -4.7529   -3.4704 P.3       1 ACP         1.3755
      2 O1G         0.7932   -4.7690   -4.0245 O.co2     1 ACP        -0.8970
      3 O2G         2.5830   -3.9064   -2.2788 O.co2     1 ACP        -0.8970
      4 O3G         2.7040   -6.2848   -3.2300 O.3       1 ACP        -0.7959
      5 PB          3.2293   -2.7193   -5.7894 P.3       1 ACP         1.5194
      6 O1B         1.8608   -2.6650   -6.4274 O.co2     1 ACP        -0.8958
      7 O2B         4.4994   -2.5848   -6.5976 O.co2     1 ACP        -0.8958
      8 C3B         3.3397   -4.3087   -4.8536 C.3       1 ACP        -0.5612
      9 PA          3.0653   -0.0868   -4.4294 P.3       1 ACP         1.6019
     10 O1A         1.6188    0.2173   -4.7536 O.co2     1 ACP        -0.9040
     11 O2A         4.1847    0.5906   -5.1901 O.co2     1 ACP        -0.9040
     12 O3A         3.2848   -1.7027   -4.5160 O.3       1 ACP        -0.8156
     13 O5'         3.2883    0.1336   -2.8242 O.3       1 ACP        -0.5465
     14 C5'         2.2816   -0.2918   -1.9206 C.3       1 ACP         0.2108
     15 C4'         2.7248    0.0226   -0.4980 C.3       1 ACP         0.0552
     16 O4'         2.4697    1.4219   -0.2462 O.3       1 ACP        -0.3428
     17 C3'         1.9404   -0.7419    0.5596 C.3       1 ACP         0.0750
     18 O3'         2.7418   -0.8086    1.7389 O.3       1 ACP        -0.6066
     19 C2'         0.7477    0.1630    0.7858 C.3       1 ACP         0.1185
     20 O2'         0.1373   -0.0577    2.0407 O.3       1 ACP        -0.5858
     21 C1'         1.3733    1.5427    0.6747 C.3       1 ACP         0.3826
     22 N9          0.4520    2.5240    0.1767 N.pl3     1 ACP        -0.5729
     23 C8          0.5305    3.2394   -0.9358 C.ar      1 ACP         0.3288
     24 N7         -0.4966    4.0680   -1.1145 N.pl3     1 ACP        -0.5338
     25 C5         -1.2879    3.8664   -0.0375 C.ar      1 ACP        -0.2581
     26 C6         -2.4754    4.4084    0.3577 C.ar      1 ACP         0.7413
     27 N6         -3.0892    5.3882   -0.4495 N.pl3     1 ACP        -0.9512
     28 N1         -3.0632    4.0158    1.5092 N.ar      1 ACP        -0.7699
     29 C2         -2.4008    3.0654    2.2262 C.ar      1 ACP         0.6898
     30 N3         -1.2259    2.4663    1.9260 N.ar      1 ACP        -0.6800
     31 C4         -0.7062    2.9047    0.7757 C.ar      1 ACP         0.6129
     32 HOG3        2.1968   -6.8531   -2.6120 H         1 ACP         0.4199
     33 H3B1        3.2469   -5.1120   -5.5930 H         1 ACP         0.0672
     34 H3B2        4.3563   -4.3533   -4.4476 H         1 ACP         0.0672
     35 H5'1        1.3500    0.2325   -2.1560 H         1 ACP         0.0277
     36 H5'2        2.1267   -1.3683   -2.0444 H         1 ACP         0.0277
     37 H4'         3.8050   -0.1388   -0.4008 H         1 ACP         0.1249
     38 H3'         1.6784   -1.7629    0.2714 H         1 ACP         0.0564
     39 HO3'        2.2232   -1.2979    2.3953 H         1 ACP         0.4511
     40 H2'        -0.0011    0.0027    0.0003 H         1 ACP         0.0716
     41 HO2'       -0.1563   -0.9855    2.0596 H         1 ACP         0.4454
     42 H1'         1.7826    1.9024    1.6451 H         1 ACP         0.1310
     43 H8          1.3437    3.1645   -1.6367 H         1 ACP         0.3565
     44 HN61       -2.6210    5.7042   -1.2748 H         1 ACP         0.4414
     45 HN62       -3.9356    5.8187   -0.1356 H         1 ACP         0.4414
     46 H2         -2.8752    2.7532    3.1495 H         1 ACP         0.0676
     47 H47        -0.6372    4.7004   -1.8900 H         1 ACP         0.5052
@<TRIPOS>BOND
     1    1    2 2
     2    1    3 1
     3    1    4 1
     4    1    8 1
     5    4   32 1
     6    5    6 2
     7    5    7 1
     8    5    8 1
     9    5   12 1
    10    8   33 1
    11    8   34 1
    12    9   10 2
    13    9   11 1
    14    9   12 1
    15    9   13 1
    16   13   14 1
    17   14   15 1
    18   14   35 1
    19   14   36 1
    20   15   16 1
    21   15   17 1
    22   15   37 1
    23   16   21 1
    24   17   18 1
    25   17   19 1
    26   17   38 1
    27   18   39 1
    28   19   20 1
    29   19   21 1
    30   19   40 1
    31   20   41 1
    32   21   22 1
    33   21   42 1
    34   22   23 ar
    35   22   31 ar
    36   23   24 ar
    37   23   43 1
    38   24   25 ar
    39   24   47 1
    40   25   26 ar
    41   25   31 ar
    42   26   27 1
    43   26   28 ar
    44   27   44 1
    45   27   45 1
    46   28   29 ar
    47   29   30 ar
    48   29   46 1
    49   30   31 ar
@<TRIPOS>SUBSTRUCTURE
     1 ACP         1 GROUP 0 A     ****
@<TRIPOS>MOLECULE
[[5-(6-amino-7,8-dihydropurin-8-ylium-9-yl)-3,4-dihydroxy-tetrahydrofuran-2-yl]methoxy-oxido-phosphoryl]oxy-[[hydroxy(oxido)phosphoryl]methyl]phosphinate
   47    49     1     0     0
SMALL
USER_CHARGES

@<TRIPOS>ATOM
      1 PG          2.7492   -7.0457    5.1444 P.3       1 ACP         1.3755
      2 O1G         3.8184   -6.3796    5.9787 O.co2     1 ACP        -0.8970
      3 O2G         2.5711   -6.7417    3.6747 O.co2     1 ACP        -0.8970
      4 O3G         2.8245   -8.6611    5.3565 O.3       1 ACP        -0.7959
      5 PB         -0.4821   -7.3707    5.3117 P.3       1 ACP         1.5194
      6 O1B        -1.5672   -6.9189    6.2611 O.co2     1 ACP        -0.8958
      7 O2B        -0.2825   -8.8250    4.9518 O.co2     1 ACP        -0.8958
      8 C3B         1.1255   -6.7426    5.9713 C.3       1 ACP        -0.5612
      9 PA         -1.7212   -6.2756    2.8475 P.3       1 ACP         1.6019
     10 O1A        -2.8677   -5.5415    3.5081 O.co2     1 ACP        -0.9040
     11 O2A        -1.9532   -7.5972    2.1476 O.co2     1 ACP        -0.9040
     12 O3A        -0.5331   -6.4756    3.9500 O.3       1 ACP        -0.8156
     13 O5'        -0.9728   -5.2427    1.8237 O.3       1 ACP        -0.5465
     14 C5'        -0.7840   -3.8935    2.2172 C.3       1 ACP         0.2108
     15 C4'        -0.0724   -3.1466    1.1027 C.3       1 ACP         0.0552
     16 O4'        -0.8674   -3.1929   -0.0945 O.3       1 ACP        -0.3428
     17 C3'         0.1338   -1.6715    1.4027 C.3       1 ACP         0.0750
     18 O3'         1.2893   -1.4445    2.1808 O.3       1 ACP        -0.6066
     19 C2'         0.2158   -1.0724    0.0128 C.3       1 ACP         0.1185
     20 O2'         1.5141   -1.2448   -0.5513 O.3       1 ACP        -0.5858
     21 C1'        -0.7897   -1.9176   -0.7583 C.3       1 ACP         0.3826
     22 N9         -2.1040   -1.3333   -0.7704 N.pl3     1 ACP        -0.5729
     23 C8         -3.0822   -1.4850    0.1102 C.ar      1 ACP         0.3288
     24 N7         -4.1844   -0.7999   -0.1888 N.pl3     1 ACP        -0.5338
     25 C5         -3.8875   -0.1651   -1.3445 C.ar      1 ACP        -0.2581
     26 C6         -4.5941    0.6799   -2.1486 C.ar      1 ACP         0.7413
     27 N6         -5.9138    1.0274   -1.7939 N.pl3     1 ACP        -0.9512
     28 N1         -4.0421    1.1824   -3.2748 N.ar      1 ACP        -0.7699
     29 C2         -2.7637    0.7937   -3.5405 C.ar      1 ACP         0.6898
     30 N3         -1.9788   -0.0343   -2.8139 N.ar      1 ACP        -0.6800
     31 C4         -2.5915   -0.4902   -1.7174 C.ar      1 ACP         0.6129
     32 HOG3        3.6548   -9.1259    5.1185 H         1 ACP         0.4199
     33 H3B1        1.0247   -5.6545    6.0518 H         1 ACP         0.0672
     34 H3B2        1.2133   -7.1394    6.9888 H         1 ACP         0.0672
     35 H5'1       -1.7614   -3.4427    2.4167 H         1 ACP         0.0277
     36 H5'2       -0.1870   -3.8723    3.1344 H         1 ACP         0.0277
     37 H4'         0.8886   -3.6447    0.8779 H         1 ACP         0.1249
     38 H3'        -0.7373   -1.2359    1.9870 H         1 ACP         0.0564
     39 HO3'        1.3408   -0.4870    2.3219 H         1 ACP         0.4511
     40 H2'        -0.0384   -0.0310    0.0096 H         1 ACP         0.0716
     41 HO2'        2.1463   -0.7958    0.0370 H         1 ACP         0.4454
     42 H1'        -0.4769   -2.1002   -1.8093 H         1 ACP         0.1310
     43 H8         -3.0031   -2.1011    0.9891 H         1 ACP         0.3565
     44 HN61       -6.3271    0.6117   -0.9836 H         1 ACP         0.4414
     45 HN62       -6.4471    1.6092   -2.4083 H         1 ACP         0.4414
     46 H2         -2.3243    1.1986   -4.4449 H         1 ACP         0.0676
     47 H47        -5.0436   -0.7722    0.3425 H         1 ACP         0.5052
@<TRIPOS>BOND
     1    1    2 2
     2    1    3 1
     3    1    4 1
     4    1    8 1
     5    4   32 1
     6    5    6 2
     7    5    7 1
     8    5    8 1
     9    5   12 1
    10    8   33 1
    11    8   34 1
    12    9   10 2
    13    9   11 1
    14    9   12 1
    15    9   13 1
    16   13   14 1
    17   14   15 1
    18   14   35 1
    19   14   36 1
    20   15   16 1
    21   15   17 1
    22   15   37 1
    23   16   21 1
    24   17   18 1
    25   17   19 1
    26   17   38 1
    27   18   39 1
    28   19   20 1
    29   19   21 1
    30   19   40 1
    31   20   41 1
    32   21   22 1
    33   21   42 1
    34   22   23 ar
    35   22   31 ar
    36   23   24 ar
    37   23   43 1
    38   24   25 ar
    39   24   47 1
    40   25   26 ar
    41   25   31 ar
    42   26   27 1
    43   26   28 ar
    44   27   44 1
    45   27   45 1
    46   28   29 ar
    47   29   30 ar
    48   29   46 1
    49   30   31 ar
@<TRIPOS>SUBSTRUCTURE
     1 ACP         1 GROUP 0 A     ****
@<TRIPOS>MOLECULE
[[5-(6-amino-7,8-dihydropurin-8-ylium-9-yl)-3,4-dihydroxy-tetrahydrofuran-2-yl]methoxy-oxido-phosphoryl]oxy-[[hydroxy(oxido)phosphoryl]methyl]phosphinate
   47    49     1     0     0
SMALL
USER_CHARGES

@<TRIPOS>ATOM
      1 PG         -1.0870   -9.6115    4.3774 P.3       1 ACP         1.3755
      2 O1G        -1.7313  -10.7059    3.5589 O.co2     1 ACP        -0.8970
      3 O2G        -1.8883   -8.7163    5.2943 O.co2     1 ACP        -0.8970
      4 O3G         0.1840  -10.2237    5.1957 O.3       1 ACP        -0.7959
      5 PB          0.7995   -7.0350    3.7625 P.3       1 ACP         1.5194
      6 O1B         1.4128   -6.4127    2.5298 O.co2     1 ACP        -0.8958
      7 O2B         1.6326   -7.4513    4.9528 O.co2     1 ACP        -0.8958
      8 C3B        -0.1558   -8.5188    3.2150 C.3       1 ACP        -0.5612
      9 PA         -0.5272   -4.5716    4.7518 P.3       1 ACP         1.6019
     10 O1A         0.5026   -4.3627    5.8407 O.co2     1 ACP        -0.9040
     11 O2A        -1.9772   -4.2040    4.9812 O.co2     1 ACP        -0.9040
     12 O3A        -0.4587   -6.1302    4.2691 O.3       1 ACP        -0.8156
     13 O5'         0.0099   -3.8403    3.3910 O.3       1 ACP        -0.5465
     14 C5'        -0.7840   -3.8935    2.2172 C.3       1 ACP         0.2108
     15 C4'        -0.0724   -3.1466    1.1027 C.3       1 ACP         0.0552
     16 O4'        -0.8674   -3.1929   -0.0945 O.3       1 ACP        -0.3428
     17 C3'         0.1338   -1.6715    1.4027 C.3       1 ACP         0.0750
     18 O3'         1.2893   -1.4445    2.1808 O.3       1 ACP        -0.6066
     19 C2'         0.2158   -1.0724    0.0128 C.3       1 ACP         0.1185
     20 O2'         1.5141   -1.2448   -0.5513 O.3       1 ACP        -0.5858
     21 C1'        -0.7897   -1.9176   -0.7583 C.3       1 ACP         0.3826
     22 N9         -2.1040   -1.3333   -0.7704 N.pl3     1 ACP        -0.5729
     23 C8         -3.0822   -1.4850    0.1102 C.ar      1 ACP         0.3288
     24 N7         -4.1844   -0.7999   -0.1888 N.pl3     1 ACP        -0.5338
     25 C5         -3.8875   -0.1651   -1.3445 C.ar      1 ACP        -0.2581
     26 C6         -4.5941    0.6799   -2.1486 C.ar      1 ACP         0.7413
     27 N6         -5.9138    1.0274   -1.7939 N.pl3     1 ACP        -0.9512
     28 N1         -4.0421    1.1824   -3.2748 N.ar      1 ACP        -0.7699
     29 C2         -2.7637    0.7937   -3.5405 C.ar      1 ACP         0.6898
     30 N3         -1.9788   -0.0343   -2.8139 N.ar      1 ACP        -0.6800
     31 C4         -2.5915   -0.4902   -1.7174 C.ar      1 ACP         0.6129
     32 HOG3        0.0233  -10.9522    5.8325 H         1 ACP         0.4199
     33 H3B1       -0.8874   -8.1640    2.4806 H         1 ACP         0.0672
     34 H3B2        0.5560   -9.1607    2.6842 H         1 ACP         0.0672
     35 H5'1       -0.9358   -4.9414    1.9395 H         1 ACP         0.0277
     36 H5'2       -1.7558   -3.4349    2.4258 H         1 ACP         0.0277
     37 H4'         0.8886   -3.6447    0.8779 H         1 ACP         0.1249
     38 H3'        -0.7373   -1.2359    1.9870 H         1 ACP         0.0564
     39 HO3'        1.1626   -1.9325    3.0084 H         1 ACP         0.4511
     40 H2'        -0.0384   -0.0310    0.0096 H         1 ACP         0.0716
     41 HO2'        2.1463   -0.7958    0.0370 H         1 ACP         0.4454
     42 H1'        -0.4769   -2.1002   -1.8093 H         1 ACP         0.1310
     43 H8         -3.0031   -2.1011    0.9891 H         1 ACP         0.3565
     44 HN61       -6.3271    0.6117   -0.9836 H         1 ACP         0.4414
     45 HN62       -6.4471    1.6092   -2.4083 H         1 ACP         0.4414
     46 H2         -2.3243    1.1986   -4.4449 H         1 ACP         0.0676
     47 H47        -5.0436   -0.7722    0.3425 H         1 ACP         0.5052
@<TRIPOS>BOND
     1    1    2 2
     2    1    3 1
     3    1    4 1
     4    1    8 1
     5    4   32 1
     6    5    6 2
     7    5    7 1
     8    5    8 1
     9    5   12 1
    10    8   33 1
    11    8   34 1
    12    9   10 2
    13    9   11 1
    14    9   12 1
    15    9   13 1
    16   13   14 1
    17   14   15 1
    18   14   35 1
    19   14   36 1
    20   15   16 1
    21   15   17 1
    22   15   37 1
    23   16   21 1
    24   17   18 1
    25   17   19 1
    26   17   38 1
    27   18   39 1
    28   19   20 1
    29   19   21 1
    30   19   40 1
    31   20   41 1
    32   21   22 1
    33   21   42 1
    34   22   23 ar
    35   22   31 ar
    36   23   24 ar
    37   23   43 1
    38   24   25 ar
    39   24   47 1
    40   25   26 ar
    41   25   31 ar
    42   26   27 1
    43   26   28 ar
    44   27   44 1
    45   27   45 1
    46   28   29 ar
    47   29   30 ar
    48   29   46 1
    49   30   31 ar
@<TRIPOS>SUBSTRUCTURE
     1 ACP         1 GROUP 0 A     ****
@<TRIPOS>MOLECULE
[[5-(6-amino-7,8-dihydropurin-8-ylium-9-yl)-3,4-dihydroxy-tetrahydrofuran-2-yl]methoxy-oxido-phosphoryl]oxy-[[hydroxy(oxido)phosphoryl]methyl]phosphinate
   47    49     1     0     0
SMALL
USER_CHARGES

@<TRIPOS>ATOM
      1 PG          1.1453   -8.2654    0.6962 P.3       1 ACP         1.3755
      2 O1G         2.2475   -8.6532   -0.2616 O.co2     1 ACP        -0.8970
      3 O2G         0.3477   -6.9924    0.5303 O.co2     1 ACP        -0.8970
      4 O3G         0.1233   -9.5224    0.8838 O.3       1 ACP        -0.7959
      5 PB          0.8862   -7.8278    3.9082 P.3       1 ACP         1.5194
      6 O1B         1.8198   -7.9248    5.0920 O.co2     1 ACP        -0.8958
      7 O2B        -0.4069   -8.6070    3.8375 O.co2     1 ACP        -0.8958
      8 C3B         1.8640   -8.2484    2.3978 C.3       1 ACP        -0.5612
      9 PA         -0.0671   -5.0728    4.4633 P.3       1 ACP         1.6019
     10 O1A         0.8700   -4.7631    5.6103 O.co2     1 ACP        -0.9040
     11 O2A        -1.5164   -5.4219    4.7247 O.co2     1 ACP        -0.9040
     12 O3A         0.5967   -6.2612    3.5612 O.3       1 ACP        -0.8156
     13 O5'         0.0099   -3.8403    3.3910 O.3       1 ACP        -0.5465
     14 C5'        -0.7840   -3.8935    2.2172 C.3       1 ACP         0.2108
     15 C4'        -0.0724   -3.1466    1.1027 C.3       1 ACP         0.0552
     16 O4'        -0.8674   -3.1929   -0.0945 O.3       1 ACP        -0.3428
     17 C3'         0.1338   -1.6715    1.4027 C.3       1 ACP         0.0750
     18 O3'         1.2893   -1.4445    2.1808 O.3       1 ACP        -0.6066
     19 C2'         0.2158   -1.0724    0.0128 C.3       1 ACP         0.1185
     20 O2'         1.5141   -1.2448   -0.5513 O.3       1 ACP        -0.5858
     21 C1'        -0.7897   -1.9176   -0.7583 C.3       1 ACP         0.3826
     22 N9         -2.1040   -1.3333   -0.7704 N.pl3     1 ACP        -0.5729
     23 C8         -3.0822   -1.4850    0.1102 C.ar      1 ACP         0.3288
     24 N7         -4.1844   -0.7999   -0.1888 N.pl3     1 ACP        -0.5338
     25 C5         -3.8875   -0.1651   -1.3445 C.ar      1 ACP        -0.2581
     26 C6         -4.5941    0.6799   -2.1486 C.ar      1 ACP         0.7413
     27 N6         -5.9138    1.0274   -1.7939 N.pl3     1 ACP        -0.9512
     28 N1         -4.0421    1.1824   -3.2748 N.ar      1 ACP        -0.7699
     29 C2         -2.7637    0.7937   -3.5405 C.ar      1 ACP         0.6898
     30 N3         -1.9788   -0.0343   -2.8139 N.ar      1 ACP        -0.6800
     31 C4         -2.5915   -0.4902   -1.7174 C.ar      1 ACP         0.6129
     32 HOG3       -0.3417   -9.8693    0.0928 H         1 ACP         0.4199
     33 H3B1        2.7037   -7.5454    2.3653 H         1 ACP         0.0672
     34 H3B2        2.2795   -9.2471    2.5722 H         1 ACP         0.0672
     35 H5'1       -0.9358   -4.9414    1.9395 H         1 ACP         0.0277
     36 H5'2       -1.7558   -3.4349    2.4258 H         1 ACP         0.0277
     37 H4'         0.8886   -3.6447    0.8779 H         1 ACP         0.1249
     38 H3'        -0.7373   -1.2359    1.9870 H         1 ACP         0.0564
     39 HO3'        1.1626   -1.9325    3.0084 H         1 ACP         0.4511
     40 H2'        -0.0384   -0.0310    0.0096 H         1 ACP         0.0716
     41 HO2'        2.1463   -0.7958    0.0370 H         1 ACP         0.4454
     42 H1'        -0.4769   -2.1002   -1.8093 H         1 ACP         0.1310
     43 H8         -3.0031   -2.1011    0.9891 H         1 ACP         0.3565
     44 HN61       -6.3271    0.6117   -0.9836 H         1 ACP         0.4414
     45 HN62       -6.4471    1.6092   -2.4083 H         1 ACP         0.4414
     46 H2         -2.3243    1.1986   -4.4449 H         1 ACP         0.0676
     47 H47        -5.0436   -0.7722    0.3425 H         1 ACP         0.5052
@<TRIPOS>BOND
     1    1    2 2
     2    1    3 1
     3    1    4 1
     4    1    8 1
     5    4   32 1
     6    5    6 2
     7    5    7 1
     8    5    8 1
     9    5   12 1
    10    8   33 1
    11    8   34 1
    12    9   10 2
    13    9   11 1
    14    9   12 1
    15    9   13 1
    16   13   14 1
    17   14   15 1
    18   14   35 1
    19   14   36 1
    20   15   16 1
    21   15   17 1
    22   15   37 1
    23   16   21 1
    24   17   18 1
    25   17   19 1
    26   17   38 1
    27   18   39 1
    28   19   20 1
    29   19   21 1
    30   19   40 1
    31   20   41 1
    32   21   22 1
    33   21   42 1
    34   22   23 ar
    35   22   31 ar
    36   23   24 ar
    37   23   43 1
    38   24   25 ar
    39   24   47 1
    40   25   26 ar
    41   25   31 ar
    42   26   27 1
    43   26   28 ar
    44   27   44 1
    45   27   45 1
    46   28   29 ar
    47   29   30 ar
    48   29   46 1
    49   30   31 ar
@<TRIPOS>SUBSTRUCTURE
     1 ACP         1 GROUP 0 A     ****
@<TRIPOS>MOLECULE
[[5-(6-amino-7,8-dihydropurin-8-ylium-9-yl)-3,4-dihydroxy-tetrahydrofuran-2-yl]methoxy-oxido-phosphoryl]oxy-[[hydroxy(oxido)phosphoryl]methyl]phosphinate
   47    49     1     0     0
SMALL
USER_CHARGES

@<TRIPOS>ATOM
      1 PG         -4.4896   -1.7005    3.9651 P.3       1 ACP         1.3755
      2 O1G        -5.9127   -1.3589    4.3405 O.co2     1 ACP        -0.8970
      3 O2G        -4.1308   -2.9920    3.2669 O.co2     1 ACP        -0.8970
      4 O3G        -3.8265   -0.4480    3.1580 O.3       1 ACP        -0.7959
      5 PB         -1.6512   -1.9389    5.5341 P.3       1 ACP         1.5194
      6 O1B        -1.1840   -1.7551    6.9591 O.co2     1 ACP        -0.8958
      7 O2B        -1.0322   -1.1831    4.3809 O.co2     1 ACP        -0.8958
      8 C3B        -3.4674   -1.6009    5.5005 C.3       1 ACP        -0.5612
      9 PA         -0.5272   -4.5716    4.7518 P.3       1 ACP         1.6019
     10 O1A        -1.1664   -5.8869    4.3629 O.co2     1 ACP        -0.9040
     11 O2A         0.5547   -4.5231    5.8089 O.co2     1 ACP        -0.9040
     12 O3A        -1.7101   -3.5279    5.1738 O.3       1 ACP        -0.8156
     13 O5'         0.0099   -3.8403    3.3910 O.3       1 ACP        -0.5465
     14 C5'        -0.7840   -3.8935    2.2172 C.3       1 ACP         0.2108
     15 C4'        -0.0724   -3.1466    1.1027 C.3       1 ACP         0.0552
     16 O4'        -0.8674   -3.1929   -0.0945 O.3       1 ACP        -0.3428
     17 C3'         0.1338   -1.6715    1.4027 C.3       1 ACP         0.0750
     18 O3'         1.2893   -1.4445    2.1808 O.3       1 ACP        -0.6066
     19 C2'         0.2158   -1.0724    0.0128 C.3       1 ACP         0.1185
     20 O2'         1.5141   -1.2448   -0.5513 O.3       1 ACP        -0.5858
     21 C1'        -0.7897   -1.9176   -0.7583 C.3       1 ACP         0.3826
     22 N9         -2.1040   -1.3333   -0.7704 N.pl3     1 ACP        -0.5729
     23 C8         -3.0822   -1.4850    0.1102 C.ar      1 ACP         0.3288
     24 N7         -4.1844   -0.7999   -0.1888 N.pl3     1 ACP        -0.5338
     25 C5         -3.8875   -0.1651   -1.3445 C.ar      1 ACP        -0.2581
     26 C6         -4.5941    0.6799   -2.1486 C.ar      1 ACP         0.7413
     27 N6         -5.9138    1.0274   -1.7939 N.pl3     1 ACP        -0.9512
     28 N1         -4.0421    1.1824   -3.2748 N.ar      1 ACP        -0.7699
     29 C2         -2.7637    0.7937   -3.5405 C.ar      1 ACP         0.6898
     30 N3         -1.9788   -0.0343   -2.8139 N.ar      1 ACP        -0.6800
     31 C4         -2.5915   -0.4902   -1.7174 C.ar      1 ACP         0.6129
     32 HOG3       -4.2448   -0.1578    2.3195 H         1 ACP         0.4199
     33 H3B1       -3.9258   -2.2932    6.2154 H         1 ACP         0.0672
     34 H3B2       -3.5962   -0.5877    5.8972 H         1 ACP         0.0672
     35 H5'1       -0.9358   -4.9414    1.9395 H         1 ACP         0.0277
     36 H5'2       -1.7558   -3.4349    2.4258 H         1 ACP         0.0277
     37 H4'         0.8886   -3.6447    0.8779 H         1 ACP         0.1249
     38 H3'        -0.7373   -1.2359    1.9870 H         1 ACP         0.0564
     39 HO3'        1.1626   -1.9325    3.0084 H         1 ACP         0.4511
     40 H2'        -0.0384   -0.0310    0.0096 H         1 ACP         0.0716
     41 HO2'        2.1463   -0.7958    0.0370 H         1 ACP         0.4454
     42 H1'        -0.4769   -2.1002   -1.8093 H         1 ACP         0.1310
     43 H8         -3.0031   -2.1011    0.9891 H         1 ACP         0.3565
     44 HN61       -6.3271    0.6117   -0.9836 H         1 ACP         0.4414
     45 HN62       -6.4471    1.6092   -2.4083 H         1 ACP         0.4414
     46 H2         -2.3243    1.1986   -4.4449 H         1 ACP         0.0676
     47 H47        -5.0436   -0.7722    0.3425 H         1 ACP         0.5052
@<TRIPOS>BOND
     1    1    2 2
     2    1    3 1
     3    1    4 1
     4    1    8 1
     5    4   32 1
     6    5    6 2
     7    5    7 1
     8    5    8 1
     9    5   12 1
    10    8   33 1
    11    8   34 1
    12    9   10 2
    13    9   11 1
    14    9   12 1
    15    9   13 1
    16   13   14 1
    17   14   15 1
    18   14   35 1
    19   14   36 1
    20   15   16 1
    21   15   17 1
    22   15   37 1
    23   16   21 1
    24   17   18 1
    25   17   19 1
    26   17   38 1
    27   18   39 1
    28   19   20 1
    29   19   21 1
    30   19   40 1
    31   20   41 1
    32   21   22 1
    33   21   42 1
    34   22   23 ar
    35   22   31 ar
    36   23   24 ar
    37   23   43 1
    38   24   25 ar
    39   24   47 1
    40   25   26 ar
    41   25   31 ar
    42   26   27 1
    43   26   28 ar
    44   27   44 1
    45   27   45 1
    46   28   29 ar
    47   29   30 ar
    48   29   46 1
    49   30   31 ar
@<TRIPOS>SUBSTRUCTURE
     1 ACP         1 GROUP 0 A     ****
@<TRIPOS>MOLECULE
[[5-(6-amino-7,8-dihydropurin-8-ylium-9-yl)-3,4-dihydroxy-tetrahydrofuran-2-yl]methoxy-oxido-phosphoryl]oxy-[[hydroxy(oxido)phosphoryl]methyl]phosphinate
   47    49     1     0     0
SMALL
USER_CHARGES

@<TRIPOS>ATOM
      1 PG          0.5172   -3.5952   -4.7989 P.3       1 ACP         1.3755
      2 O1G         1.1214   -3.1257   -3.4961 O.co2     1 ACP        -0.8970
      3 O2G         0.2057   -5.0505   -5.0619 O.co2     1 ACP        -0.8970
      4 O3G        -0.7955   -2.6910   -5.1443 O.3       1 ACP        -0.7959
      5 PB          1.9778   -1.2259   -6.4806 P.3       1 ACP         1.5194
      6 O1B         0.6621   -0.5385   -6.7617 O.co2     1 ACP        -0.8958
      7 O2B         3.1379   -1.1686   -7.4476 O.co2     1 ACP        -0.8958
      8 C3B         1.6128   -3.0097   -6.1660 C.3       1 ACP        -0.5612
      9 PA          2.8601    0.6157   -4.3273 P.3       1 ACP         1.6019
     10 O1A         1.5863    1.4256   -4.2209 O.co2     1 ACP        -0.9040
     11 O2A         4.0722    1.1753   -5.0401 O.co2     1 ACP        -0.9040
     12 O3A         2.4963   -0.8339   -4.9854 O.3       1 ACP        -0.8156
     13 O5'         3.2883    0.1336   -2.8242 O.3       1 ACP        -0.5465
     14 C5'         2.2816   -0.2918   -1.9206 C.3       1 ACP         0.2108
     15 C4'         2.7248    0.0226   -0.4980 C.3       1 ACP         0.0552
     16 O4'         2.4697    1.4219   -0.2462 O.3       1 ACP        -0.3428
     17 C3'         1.9404   -0.7419    0.5596 C.3       1 ACP         0.0750
     18 O3'         2.7418   -0.8086    1.7389 O.3       1 ACP        -0.6066
     19 C2'         0.7477    0.1630    0.7858 C.3       1 ACP         0.1185
     20 O2'         0.1373   -0.0577    2.0407 O.3       1 ACP        -0.5858
     21 C1'         1.3733    1.5427    0.6747 C.3       1 ACP         0.3826
     22 N9          0.4520    2.5240    0.1767 N.pl3     1 ACP        -0.5729
     23 C8          0.1928    2.8484   -1.0815 C.ar      1 ACP         0.3288
     24 N7         -0.7248    3.8048   -1.2110 N.pl3     1 ACP        -0.5338
     25 C5         -1.0765    4.1129    0.0571 C.ar      1 ACP        -0.2581
     26 C6         -1.9614    5.0063    0.5851 C.ar      1 ACP         0.7413
     27 N6         -2.7145    5.8254   -0.2810 N.pl3     1 ACP        -0.9512
     28 N1         -2.1199    5.1113    1.9228 N.ar      1 ACP        -0.7699
     29 C2         -1.3522    4.2822    2.6839 C.ar      1 ACP         0.6898
     30 N3         -0.4501    3.3660    2.2638 N.ar      1 ACP        -0.6800
     31 C4         -0.3487    3.3198    0.9322 C.ar      1 ACP         0.6129
     32 HOG3       -1.5420   -2.6879   -4.5079 H         1 ACP         0.4199
     33 H3B1        1.1812   -3.4067   -7.0916 H         1 ACP         0.0672
     34 H3B2        2.5827   -3.4982   -6.0211 H         1 ACP         0.0672
     35 H5'1        1.3500    0.2325   -2.1560 H         1 ACP         0.0277
     36 H5'2        2.1267   -1.3683   -2.0444 H         1 ACP         0.0277
     37 H4'         3.8050   -0.1388   -0.4008 H         1 ACP         0.1249
     38 H3'         1.6784   -1.7629    0.2714 H         1 ACP         0.0564
     39 HO3'        2.2232   -1.2979    2.3953 H         1 ACP         0.4511
     40 H2'        -0.0011    0.0027    0.0003 H         1 ACP         0.0716
     41 HO2'       -0.6141    0.5574    2.1082 H         1 ACP         0.4454
     42 H1'         1.7826    1.9024    1.6451 H         1 ACP         0.1310
     43 H8          0.6728    2.3873   -1.9272 H         1 ACP         0.3565
     44 HN61       -2.5537    5.7714   -1.2667 H         1 ACP         0.4414
     45 HN62       -3.3283    6.5126    0.1080 H         1 ACP         0.4414
     46 H2         -1.4818    4.3694    3.7565 H         1 ACP         0.0676
     47 H47        -1.0701    4.2005   -2.0743 H         1 ACP         0.5052
@<TRIPOS>BOND
     1    1    2 2
     2    1    3 1
     3    1    4 1
     4    1    8 1
     5    4   32 1
     6    5    6 2
     7    5    7 1
     8    5    8 1
     9    5   12 1
    10    8   33 1
    11    8   34 1
    12    9   10 2
    13    9   11 1
    14    9   12 1
    15    9   13 1
    16   13   14 1
    17   14   15 1
    18   14   35 1
    19   14   36 1
    20   15   16 1
    21   15   17 1
    22   15   37 1
    23   16   21 1
    24   17   18 1
    25   17   19 1
    26   17   38 1
    27   18   39 1
    28   19   20 1
    29   19   21 1
    30   19   40 1
    31   20   41 1
    32   21   22 1
    33   21   42 1
    34   22   23 ar
    35   22   31 ar
    36   23   24 ar
    37   23   43 1
    38   24   25 ar
    39   24   47 1
    40   25   26 ar
    41   25   31 ar
    42   26   27 1
    43   26   28 ar
    44   27   44 1
    45   27   45 1
    46   28   29 ar
    47   29   30 ar
    48   29   46 1
    49   30   31 ar
@<TRIPOS>SUBSTRUCTURE
     1 ACP         1 GROUP 0 A     ****
@<TRIPOS>MOLECULE
[[5-(6-amino-7,8-dihydropurin-8-ylium-9-yl)-3,4-dihydroxy-tetrahydrofuran-2-yl]methoxy-oxido-phosphoryl]oxy-[[hydroxy(oxido)phosphoryl]methyl]phosphinate
   47    49     1     0     0
SMALL
USER_CHARGES

@<TRIPOS>ATOM
      1 PG         -0.9454    1.7601   -5.6894 P.3       1 ACP         1.3755
      2 O1G        -2.4533    1.8332   -5.6298 O.co2     1 ACP        -0.8970
      3 O2G        -0.1277    2.7088   -6.5352 O.co2     1 ACP        -0.8970
      4 O3G        -0.3439    1.7327   -4.1737 O.3       1 ACP        -0.7959
      5 PB          1.2580   -0.5250   -6.3956 P.3       1 ACP         1.5194
      6 O1B         1.8885    0.3351   -7.4658 O.co2     1 ACP        -0.8958
      7 O2B         1.2331   -2.0334   -6.4871 O.co2     1 ACP        -0.8958
      8 C3B        -0.4886    0.0416   -6.1897 C.3       1 ACP        -0.5612
      9 PA          3.3324   -0.0529   -4.3266 P.3       1 ACP         1.6019
     10 O1A         4.1264    0.9964   -5.0738 O.co2     1 ACP        -0.9040
     11 O2A         3.8347   -1.4774   -4.2320 O.co2     1 ACP        -0.9040
     12 O3A         1.8151   -0.0782   -4.9299 O.3       1 ACP        -0.8156
     13 O5'         3.0198    0.5138   -2.8245 O.3       1 ACP        -0.5465
     14 C5'         2.2816   -0.2918   -1.9206 C.3       1 ACP         0.2108
     15 C4'         2.7248    0.0226   -0.4980 C.3       1 ACP         0.0552
     16 O4'         2.4697    1.4219   -0.2462 O.3       1 ACP        -0.3428
     17 C3'         1.9404   -0.7419    0.5596 C.3       1 ACP         0.0750
     18 O3'         2.7418   -0.8086    1.7389 O.3       1 ACP        -0.6066
     19 C2'         0.7477    0.1630    0.7858 C.3       1 ACP         0.1185
     20 O2'         0.1373   -0.0577    2.0407 O.3       1 ACP        -0.5858
     21 C1'         1.3733    1.5427    0.6747 C.3       1 ACP         0.3826
     22 N9          0.4520    2.5240    0.1767 N.pl3     1 ACP        -0.5729
     23 C8         -0.8602    2.5861    0.3496 C.ar      1 ACP         0.3288
     24 N7         -1.4308    3.6326   -0.2443 N.pl3     1 ACP        -0.5338
     25 C5         -0.4080    4.2856   -0.8394 C.ar      1 ACP        -0.2581
     26 C6         -0.3432    5.4196   -1.5943 C.ar      1 ACP         0.7413
     27 N6         -1.5276    6.1333   -1.8702 N.pl3     1 ACP        -0.9512
     28 N1          0.8395    5.8603   -2.0764 N.ar      1 ACP        -0.7699
     29 C2          1.9319    5.1095   -1.7617 C.ar      1 ACP         0.6898
     30 N3          1.9773    3.9761   -1.0249 N.ar      1 ACP        -0.6800
     31 C4          0.7724    3.6031   -0.5836 C.ar      1 ACP         0.6129
     32 HOG3       -0.5354    2.4903   -3.5807 H         1 ACP         0.4199
     33 H3B1       -0.9889   -0.1384   -7.1477 H         1 ACP         0.0672
     34 H3B2       -0.9419   -0.6302   -5.4523 H         1 ACP         0.0672
     35 H5'1        1.2153   -0.0781   -2.0454 H         1 ACP         0.0277
     36 H5'2        2.4645   -1.3454   -2.1547 H         1 ACP         0.0277
     37 H4'         3.8050   -0.1388   -0.4008 H         1 ACP         0.1249
     38 H3'         1.6784   -1.7629    0.2714 H         1 ACP         0.0564
     39 HO3'        2.2232   -1.2979    2.3953 H         1 ACP         0.4511
     40 H2'        -0.0011    0.0027    0.0003 H         1 ACP         0.0716
     41 HO2'       -0.1563   -0.9855    2.0596 H         1 ACP         0.4454
     42 H1'         1.7826    1.9024    1.6451 H         1 ACP         0.1310
     43 H8         -1.4217    1.8638    0.9164 H         1 ACP         0.3565
     44 HN61       -2.4023    5.7711   -1.5477 H         1 ACP         0.4414
     45 HN62       -1.4857    6.9379   -2.4627 H         1 ACP         0.4414
     46 H2          2.8789    5.4660   -2.1503 H         1 ACP         0.0676
     47 H47        -2.4129    3.8706   -0.2402 H         1 ACP         0.5052
@<TRIPOS>BOND
     1    1    2 2
     2    1    3 1
     3    1    4 1
     4    1    8 1
     5    4   32 1
     6    5    6 2
     7    5    7 1
     8    5    8 1
     9    5   12 1
    10    8   33 1
    11    8   34 1
    12    9   10 2
    13    9   11 1
    14    9   12 1
    15    9   13 1
    16   13   14 1
    17   14   15 1
    18   14   35 1
    19   14   36 1
    20   15   16 1
    21   15   17 1
    22   15   37 1
    23   16   21 1
    24   17   18 1
    25   17   19 1
    26   17   38 1
    27   18   39 1
    28   19   20 1
    29   19   21 1
    30   19   40 1
    31   20   41 1
    32   21   22 1
    33   21   42 1
    34   22   23 ar
    35   22   31 ar
    36   23   24 ar
    37   23   43 1
    38   24   25 ar
    39   24   47 1
    40   25   26 ar
    41   25   31 ar
    42   26   27 1
    43   26   28 ar
    44   27   44 1
    45   27   45 1
    46   28   29 ar
    47   29   30 ar
    48   29   46 1
    49   30   31 ar
@<TRIPOS>SUBSTRUCTURE
     1 ACP         1 GROUP 0 A     ****
@<TRIPOS>MOLECULE
[[5-(6-amino-7,8-dihydropurin-8-ylium-9-yl)-3,4-dihydroxy-tetrahydrofuran-2-yl]methoxy-oxido-phosphoryl]oxy-[[hydroxy(oxido)phosphoryl]methyl]phosphinate
   47    49     1     0     0
SMALL
USER_CHARGES

@<TRIPOS>ATOM
      1 PG         -0.8152   -1.4648   -6.0809 P.3       1 ACP         1.3755
      2 O1G        -1.8141   -1.4813   -7.2144 O.co2     1 ACP        -0.8970
      3 O2G        -0.9758   -0.5593   -4.8815 O.co2     1 ACP        -0.8970
      4 O3G        -0.5467   -2.9911   -5.5731 O.3       1 ACP        -0.7959
      5 PB          2.3931   -1.0143   -5.7988 P.3       1 ACP         1.5194
      6 O1B         3.5333   -0.7300   -6.7484 O.co2     1 ACP        -0.8958
      7 O2B         2.4043   -2.1990   -4.8603 O.co2     1 ACP        -0.8958
      8 C3B         0.8493   -1.1277   -6.8077 C.3       1 ACP        -0.5612
      9 PA          2.9215    1.2532   -3.9587 P.3       1 ACP         1.6019
     10 O1A         2.0230    2.2933   -3.3258 O.co2     1 ACP        -0.9040
     11 O2A         4.1836    1.6642   -4.6857 O.co2     1 ACP        -0.9040
     12 O3A         2.0199    0.3363   -4.9653 O.3       1 ACP        -0.8156
     13 O5'         3.2883    0.1336   -2.8242 O.3       1 ACP        -0.5465
     14 C5'         2.2816   -0.2918   -1.9206 C.3       1 ACP         0.2108
     15 C4'         2.7248    0.0226   -0.4980 C.3       1 ACP         0.0552
     16 O4'         2.4697    1.4219   -0.2462 O.3       1 ACP        -0.3428
     17 C3'         1.9404   -0.7419    0.5596 C.3       1 ACP         0.0750
     18 O3'         2.7418   -0.8086    1.7389 O.3       1 ACP        -0.6066
     19 C2'         0.7477    0.1630    0.7858 C.3       1 ACP         0.1185
     20 O2'         0.1373   -0.0577    2.0407 O.3       1 ACP        -0.5858
     21 C1'         1.3733    1.5427    0.6747 C.3       1 ACP         0.3826
     22 N9          0.4520    2.5240    0.1767 N.pl3     1 ACP        -0.5729
     23 C8         -0.2172    2.5216   -0.9668 C.ar      1 ACP         0.3288
     24 N7         -1.0011    3.5855   -1.1321 N.pl3     1 ACP        -0.5338
     25 C5         -0.8184    4.3200   -0.0123 C.ar      1 ACP        -0.2581
     26 C6         -1.3349    5.5079    0.4144 C.ar      1 ACP         0.7413
     27 N6         -2.2567    6.1930   -0.4036 N.pl3     1 ACP        -0.9512
     28 N1         -0.9716    6.0291    1.6069 N.ar      1 ACP        -0.7699
     29 C2         -0.0765    5.3009    2.3312 C.ar      1 ACP         0.6898
     30 N3          0.4933    4.1191    2.0023 N.ar      1 ACP        -0.6800
     31 C4          0.0865    3.6675    0.8123 C.ar      1 ACP         0.6129
     32 HOG3       -1.3053   -3.5109   -5.2318 H         1 ACP         0.4199
     33 H3B1        0.7586   -0.1773   -7.3453 H         1 ACP         0.0672
     34 H3B2        1.0295   -1.9098   -7.5536 H         1 ACP         0.0672
     35 H5'1        1.3500    0.2325   -2.1560 H         1 ACP         0.0277
     36 H5'2        2.1267   -1.3683   -2.0444 H         1 ACP         0.0277
     37 H4'         3.8050   -0.1388   -0.4008 H         1 ACP         0.1249
     38 H3'         1.6784   -1.7629    0.2714 H         1 ACP         0.0564
     39 HO3'        3.5554   -1.2733    1.4914 H         1 ACP         0.4511
     40 H2'        -0.0011    0.0027    0.0003 H         1 ACP         0.0716
     41 HO2'       -0.6141    0.5574    2.1082 H         1 ACP         0.4454
     42 H1'         1.7826    1.9024    1.6451 H         1 ACP         0.1310
     43 H8         -0.1423    1.7373   -1.6999 H         1 ACP         0.3565
     44 HN61       -2.4811    5.8206   -1.3042 H         1 ACP         0.4414
     45 HN62       -2.5986    7.0863   -0.1113 H         1 ACP         0.4414
     46 H2          0.2128    5.7222    3.2871 H         1 ACP         0.0676
     47 H47        -1.5947    3.7835   -1.9255 H         1 ACP         0.5052
@<TRIPOS>BOND
     1    1    2 2
     2    1    3 1
     3    1    4 1
     4    1    8 1
     5    4   32 1
     6    5    6 2
     7    5    7 1
     8    5    8 1
     9    5   12 1
    10    8   33 1
    11    8   34 1
    12    9   10 2
    13    9   11 1
    14    9   12 1
    15    9   13 1
    16   13   14 1
    17   14   15 1
    18   14   35 1
    19   14   36 1
    20   15   16 1
    21   15   17 1
    22   15   37 1
    23   16   21 1
    24   17   18 1
    25   17   19 1
    26   17   38 1
    27   18   39 1
    28   19   20 1
    29   19   21 1
    30   19   40 1
    31   20   41 1
    32   21   22 1
    33   21   42 1
    34   22   23 ar
    35   22   31 ar
    36   23   24 ar
    37   23   43 1
    38   24   25 ar
    39   24   47 1
    40   25   26 ar
    41   25   31 ar
    42   26   27 1
    43   26   28 ar
    44   27   44 1
    45   27   45 1
    46   28   29 ar
    47   29   30 ar
    48   29   46 1
    49   30   31 ar
@<TRIPOS>SUBSTRUCTURE
     1 ACP         1 GROUP 0 A     ****
@<TRIPOS>MOLECULE
[[5-(6-amino-7,8-dihydropurin-8-ylium-9-yl)-3,4-dihydroxy-tetrahydrofuran-2-yl]methoxy-oxido-phosphoryl]oxy-[[hydroxy(oxido)phosphoryl]methyl]phosphinate
   47    49     1     0     0
SMALL
USER_CHARGES

@<TRIPOS>ATOM
      1 PG          4.1176    0.2624   -6.9355 P.3       1 ACP         1.3755
      2 O1G         4.8890   -0.8595   -7.5905 O.co2     1 ACP        -0.8970
      3 O2G         4.4067    0.7193   -5.5242 O.co2     1 ACP        -0.8970
      4 O3G         4.0954    1.5563   -7.9281 O.3       1 ACP        -0.7959
      5 PB          1.6089   -1.6890   -6.2476 P.3       1 ACP         1.5194
      6 O1B         2.2902   -2.8799   -6.8803 O.co2     1 ACP        -0.8958
      7 O2B         0.1061   -1.5283   -6.2477 O.co2     1 ACP        -0.8958
      8 C3B         2.3236   -0.1697   -7.0190 C.3       1 ACP        -0.5612
      9 PA          2.1619   -2.4482   -3.4326 P.3       1 ACP         1.6019
     10 O1A         3.0558   -3.6357   -3.7164 O.co2     1 ACP        -0.9040
     11 O2A         0.7246   -2.6502   -3.0040 O.co2     1 ACP        -0.9040
     12 O3A         2.1796   -1.4656   -4.7369 O.3       1 ACP        -0.8156
     13 O5'         2.9202   -1.4821   -2.3524 O.3       1 ACP        -0.5465
     14 C5'         2.2816   -0.2918   -1.9206 C.3       1 ACP         0.2108
     15 C4'         2.7248    0.0226   -0.4980 C.3       1 ACP         0.0552
     16 O4'         2.4697    1.4219   -0.2462 O.3       1 ACP        -0.3428
     17 C3'         1.9404   -0.7419    0.5596 C.3       1 ACP         0.0750
     18 O3'         2.7418   -0.8086    1.7389 O.3       1 ACP        -0.6066
     19 C2'         0.7477    0.1630    0.7858 C.3       1 ACP         0.1185
     20 O2'         0.1373   -0.0577    2.0407 O.3       1 ACP        -0.5858
     21 C1'         1.3733    1.5427    0.6747 C.3       1 ACP         0.3826
     22 N9          0.4520    2.5240    0.1767 N.pl3     1 ACP        -0.5729
     23 C8         -0.2172    2.5216   -0.9668 C.ar      1 ACP         0.3288
     24 N7         -1.0011    3.5855   -1.1321 N.pl3     1 ACP        -0.5338
     25 C5         -0.8184    4.3200   -0.0123 C.ar      1 ACP        -0.2581
     26 C6         -1.3349    5.5079    0.4144 C.ar      1 ACP         0.7413
     27 N6         -2.2567    6.1930   -0.4036 N.pl3     1 ACP        -0.9512
     28 N1         -0.9716    6.0291    1.6069 N.ar      1 ACP        -0.7699
     29 C2         -0.0765    5.3009    2.3312 C.ar      1 ACP         0.6898
     30 N3          0.4933    4.1191    2.0023 N.ar      1 ACP        -0.6800
     31 C4          0.0865    3.6675    0.8123 C.ar      1 ACP         0.6129
     32 HOG3        4.9504    1.9591   -8.1907 H         1 ACP         0.4199
     33 H3B1        2.0716   -0.2140   -8.0844 H         1 ACP         0.0672
     34 H3B2        1.7772    0.6766   -6.5881 H         1 ACP         0.0672
     35 H5'1        2.5581    0.5235   -2.5966 H         1 ACP         0.0277
     36 H5'2        1.1974   -0.4370   -1.9607 H         1 ACP         0.0277
     37 H4'         3.8050   -0.1388   -0.4008 H         1 ACP         0.1249
     38 H3'         1.6784   -1.7629    0.2714 H         1 ACP         0.0564
     39 HO3'        2.2232   -1.2979    2.3953 H         1 ACP         0.4511
     40 H2'        -0.0011    0.0027    0.0003 H         1 ACP         0.0716
     41 HO2'       -0.6141    0.5574    2.1082 H         1 ACP         0.4454
     42 H1'         1.7826    1.9024    1.6451 H         1 ACP         0.1310
     43 H8         -0.1423    1.7373   -1.6999 H         1 ACP         0.3565
     44 HN61       -2.4811    5.8206   -1.3042 H         1 ACP         0.4414
     45 HN62       -2.5986    7.0863   -0.1113 H         1 ACP         0.4414
     46 H2          0.2128    5.7222    3.2871 H         1 ACP         0.0676
     47 H47        -1.5947    3.7835   -1.9255 H         1 ACP         0.5052
@<TRIPOS>BOND
     1    1    2 2
     2    1    3 1
     3    1    4 1
     4    1    8 1
     5    4   32 1
     6    5    6 2
     7    5    7 1
     8    5    8 1
     9    5   12 1
    10    8   33 1
    11    8   34 1
    12    9   10 2
    13    9   11 1
    14    9   12 1
    15    9   13 1
    16   13   14 1
    17   14   15 1
    18   14   35 1
    19   14   36 1
    20   15   16 1
    21   15   17 1
    22   15   37 1
    23   16   21 1
    24   17   18 1
    25   17   19 1
    26   17   38 1
    27   18   39 1
    28   19   20 1
    29   19   21 1
    30   19   40 1
    31   20   41 1
    32   21   22 1
    33   21   42 1
    34   22   23 ar
    35   22   31 ar
    36   23   24 ar
    37   23   43 1
    38   24   25 ar
    39   24   47 1
    40   25   26 ar
    41   25   31 ar
    42   26   27 1
    43   26   28 ar
    44   27   44 1
    45   27   45 1
    46   28   29 ar
    47   29   30 ar
    48   29   46 1
    49   30   31 ar
@<TRIPOS>SUBSTRUCTURE
     1 ACP         1 GROUP 0 A     ****
@<TRIPOS>MOLECULE
[[5-(6-amino-7,8-dihydropurin-8-ylium-9-yl)-3,4-dihydroxy-tetrahydrofuran-2-yl]methoxy-oxido-phosphoryl]oxy-[[hydroxy(oxido)phosphoryl]methyl]phosphinate
   47    49     1     0     0
SMALL
USER_CHARGES

@<TRIPOS>ATOM
      1 PG          2.2125   -3.9381   -5.5926 P.3       1 ACP         1.3755
      2 O1G         1.5898   -5.2752   -5.2651 O.co2     1 ACP        -0.8970
      3 O2G         3.2686   -3.3070   -4.7148 O.co2     1 ACP        -0.8970
      4 O3G         2.7297   -3.9454   -7.1393 O.3       1 ACP        -0.7959
      5 PB          1.1205   -0.9312   -6.1772 P.3       1 ACP         1.5194
      6 O1B        -0.2343   -0.2652   -6.2389 O.co2     1 ACP        -0.8958
      7 O2B         2.0960   -0.8786   -7.3304 O.co2     1 ACP        -0.8958
      8 C3B         0.8420   -2.7129   -5.7744 C.3       1 ACP        -0.5612
      9 PA          2.3321    0.9617   -4.2393 P.3       1 ACP         1.6019
     10 O1A         1.0835    1.7582   -3.9287 O.co2     1 ACP        -0.9040
     11 O2A         3.3949    1.5221   -5.1596 O.co2     1 ACP        -0.9040
     12 O3A         1.8825   -0.5045   -4.8004 O.3       1 ACP        -0.8156
     13 O5'         3.0198    0.5138   -2.8245 O.3       1 ACP        -0.5465
     14 C5'         2.2816   -0.2918   -1.9206 C.3       1 ACP         0.2108
     15 C4'         2.7248    0.0226   -0.4980 C.3       1 ACP         0.0552
     16 O4'         2.4697    1.4219   -0.2462 O.3       1 ACP        -0.3428
     17 C3'         1.9404   -0.7419    0.5596 C.3       1 ACP         0.0750
     18 O3'         2.7418   -0.8086    1.7389 O.3       1 ACP        -0.6066
     19 C2'         0.7477    0.1630    0.7858 C.3       1 ACP         0.1185
     20 O2'         0.1373   -0.0577    2.0407 O.3       1 ACP        -0.5858
     21 C1'         1.3733    1.5427    0.6747 C.3       1 ACP         0.3826
     22 N9          0.4520    2.5240    0.1767 N.pl3     1 ACP        -0.5729
     23 C8         -0.8602    2.5861    0.3496 C.ar      1 ACP         0.3288
     24 N7         -1.4308    3.6326   -0.2443 N.pl3     1 ACP        -0.5338
     25 C5         -0.4080    4.2856   -0.8394 C.ar      1 ACP        -0.2581
     26 C6         -0.3432    5.4196   -1.5943 C.ar      1 ACP         0.7413
     27 N6         -1.5276    6.1333   -1.8702 N.pl3     1 ACP        -0.9512
     28 N1          0.8395    5.8603   -2.0764 N.ar      1 ACP        -0.7699
     29 C2          1.9319    5.1095   -1.7617 C.ar      1 ACP         0.6898
     30 N3          1.9773    3.9761   -1.0249 N.ar      1 ACP        -0.6800
     31 C4          0.7724    3.6031   -0.5836 C.ar      1 ACP         0.6129
     32 HOG3        3.4030   -4.6077   -7.4042 H         1 ACP         0.4199
     33 H3B1        0.2881   -2.7352   -4.8294 H         1 ACP         0.0672
     34 H3B2        0.1764   -3.1010   -6.5533 H         1 ACP         0.0672
     35 H5'1        1.2153   -0.0781   -2.0454 H         1 ACP         0.0277
     36 H5'2        2.4645   -1.3454   -2.1547 H         1 ACP         0.0277
     37 H4'         3.8050   -0.1388   -0.4008 H         1 ACP         0.1249
     38 H3'         1.6784   -1.7629    0.2714 H         1 ACP         0.0564
     39 HO3'        2.2232   -1.2979    2.3953 H         1 ACP         0.4511
     40 H2'        -0.0011    0.0027    0.0003 H         1 ACP         0.0716
     41 HO2'       -0.1563   -0.9855    2.0596 H         1 ACP         0.4454
     42 H1'         1.7826    1.9024    1.6451 H         1 ACP         0.1310
     43 H8         -1.4217    1.8638    0.9164 H         1 ACP         0.3565
     44 HN61       -2.4023    5.7711   -1.5477 H         1 ACP         0.4414
     45 HN62       -1.4857    6.9379   -2.4627 H         1 ACP         0.4414
     46 H2          2.8789    5.4660   -2.1503 H         1 ACP         0.0676
     47 H47        -2.4129    3.8706   -0.2402 H         1 ACP         0.5052
@<TRIPOS>BOND
     1    1    2 2
     2    1    3 1
     3    1    4 1
     4    1    8 1
     5    4   32 1
     6    5    6 2
     7    5    7 1
     8    5    8 1
     9    5   12 1
    10    8   33 1
    11    8   34 1
    12    9   10 2
    13    9   11 1
    14    9   12 1
    15    9   13 1
    16   13   14 1
    17   14   15 1
    18   14   35 1
    19   14   36 1
    20   15   16 1
    21   15   17 1
    22   15   37 1
    23   16   21 1
    24   17   18 1
    25   17   19 1
    26   17   38 1
    27   18   39 1
    28   19   20 1
    29   19   21 1
    30   19   40 1
    31   20   41 1
    32   21   22 1
    33   21   42 1
    34   22   23 ar
    35   22   31 ar
    36   23   24 ar
    37   23   43 1
    38   24   25 ar
    39   24   47 1
    40   25   26 ar
    41   25   31 ar
    42   26   27 1
    43   26   28 ar
    44   27   44 1
    45   27   45 1
    46   28   29 ar
    47   29   30 ar
    48   29   46 1
    49   30   31 ar
@<TRIPOS>SUBSTRUCTURE
     1 ACP         1 GROUP 0 A     ****
@<TRIPOS>MOLECULE
[[5-(6-amino-7,8-dihydropurin-8-ylium-9-yl)-3,4-dihydroxy-tetrahydrofuran-2-yl]methoxy-oxido-phosphoryl]oxy-[[hydroxy(oxido)phosphoryl]methyl]phosphinate
   47    49     1     0     0
SMALL
USER_CHARGES

@<TRIPOS>ATOM
      1 PG         -5.7440   -5.5419    3.4451 P.3       1 ACP         1.3755
      2 O1G        -6.1978   -6.9326    3.0670 O.co2     1 ACP        -0.8970
      3 O2G        -5.0144   -4.6429    2.4737 O.co2     1 ACP        -0.8970
      4 O3G        -6.9925   -4.7250    4.1037 O.3       1 ACP        -0.7959
      5 PB         -3.1345   -6.6798    5.0170 P.3       1 ACP         1.5194
      6 O1B        -3.4969   -8.1111    4.6968 O.co2     1 ACP        -0.8958
      7 O2B        -2.4086   -6.2986    6.2867 O.co2     1 ACP        -0.8958
      8 C3B        -4.6929   -5.6889    4.9570 C.3       1 ACP        -0.5612
      9 PA         -1.0048   -6.4109    2.9679 P.3       1 ACP         1.6019
     10 O1A        -1.2176   -7.7423    2.2809 O.co2     1 ACP        -0.9040
     11 O2A         0.1532   -6.2121    3.9218 O.co2     1 ACP        -0.9040
     12 O3A        -2.3855   -6.0011    3.7378 O.3       1 ACP        -0.8156
     13 O5'        -0.9728   -5.2427    1.8237 O.3       1 ACP        -0.5465
     14 C5'        -0.7840   -3.8935    2.2172 C.3       1 ACP         0.2108
     15 C4'        -0.0724   -3.1466    1.1027 C.3       1 ACP         0.0552
     16 O4'        -0.8674   -3.1929   -0.0945 O.3       1 ACP        -0.3428
     17 C3'         0.1338   -1.6715    1.4027 C.3       1 ACP         0.0750
     18 O3'         1.2893   -1.4445    2.1808 O.3       1 ACP        -0.6066
     19 C2'         0.2158   -1.0724    0.0128 C.3       1 ACP         0.1185
     20 O2'         1.5141   -1.2448   -0.5513 O.3       1 ACP        -0.5858
     21 C1'        -0.7897   -1.9176   -0.7583 C.3       1 ACP         0.3826
     22 N9         -2.1040   -1.3333   -0.7704 N.pl3     1 ACP        -0.5729
     23 C8         -3.0822   -1.4850    0.1102 C.ar      1 ACP         0.3288
     24 N7         -4.1844   -0.7999   -0.1888 N.pl3     1 ACP        -0.5338
     25 C5         -3.8875   -0.1651   -1.3445 C.ar      1 ACP        -0.2581
     26 C6         -4.5941    0.6799   -2.1486 C.ar      1 ACP         0.7413
     27 N6         -5.9138    1.0274   -1.7939 N.pl3     1 ACP        -0.9512
     28 N1         -4.0421    1.1824   -3.2748 N.ar      1 ACP        -0.7699
     29 C2         -2.7637    0.7937   -3.5405 C.ar      1 ACP         0.6898
     30 N3         -1.9788   -0.0343   -2.8139 N.ar      1 ACP        -0.6800
     31 C4         -2.5915   -0.4902   -1.7174 C.ar      1 ACP         0.6129
     32 HOG3       -7.7991   -4.5876    3.5627 H         1 ACP         0.4199
     33 H3B1       -5.3451   -6.0872    5.7421 H         1 ACP         0.0672
     34 H3B2       -4.4169   -4.6690    5.2468 H         1 ACP         0.0672
     35 H5'1       -1.7614   -3.4427    2.4167 H         1 ACP         0.0277
     36 H5'2       -0.1870   -3.8723    3.1344 H         1 ACP         0.0277
     37 H4'         0.8886   -3.6447    0.8779 H         1 ACP         0.1249
     38 H3'        -0.7373   -1.2359    1.9870 H         1 ACP         0.0564
     39 HO3'        1.3408   -0.4870    2.3219 H         1 ACP         0.4511
     40 H2'        -0.0384   -0.0310    0.0096 H         1 ACP         0.0716
     41 HO2'        2.1463   -0.7958    0.0370 H         1 ACP         0.4454
     42 H1'        -0.4769   -2.1002   -1.8093 H         1 ACP         0.1310
     43 H8         -3.0031   -2.1011    0.9891 H         1 ACP         0.3565
     44 HN61       -6.3271    0.6117   -0.9836 H         1 ACP         0.4414
     45 HN62       -6.4471    1.6092   -2.4083 H         1 ACP         0.4414
     46 H2         -2.3243    1.1986   -4.4449 H         1 ACP         0.0676
     47 H47        -5.0436   -0.7722    0.3425 H         1 ACP         0.5052
@<TRIPOS>BOND
     1    1    2 2
     2    1    3 1
     3    1    4 1
     4    1    8 1
     5    4   32 1
     6    5    6 2
     7    5    7 1
     8    5    8 1
     9    5   12 1
    10    8   33 1
    11    8   34 1
    12    9   10 2
    13    9   11 1
    14    9   12 1
    15    9   13 1
    16   13   14 1
    17   14   15 1
    18   14   35 1
    19   14   36 1
    20   15   16 1
    21   15   17 1
    22   15   37 1
    23   16   21 1
    24   17   18 1
    25   17   19 1
    26   17   38 1
    27   18   39 1
    28   19   20 1
    29   19   21 1
    30   19   40 1
    31   20   41 1
    32   21   22 1
    33   21   42 1
    34   22   23 ar
    35   22   31 ar
    36   23   24 ar
    37   23   43 1
    38   24   25 ar
    39   24   47 1
    40   25   26 ar
    41   25   31 ar
    42   26   27 1
    43   26   28 ar
    44   27   44 1
    45   27   45 1
    46   28   29 ar
    47   29   30 ar
    48   29   46 1
    49   30   31 ar
@<TRIPOS>SUBSTRUCTURE
     1 ACP         1 GROUP 0 A     ****
@<TRIPOS>MOLECULE
[[5-(6-amino-7,8-dihydropurin-8-ylium-9-yl)-3,4-dihydroxy-tetrahydrofuran-2-yl]methoxy-oxido-phosphoryl]oxy-[[hydroxy(oxido)phosphoryl]methyl]phosphinate
   47    49     1     0     0
SMALL
USER_CHARGES

@<TRIPOS>ATOM
      1 PG          4.6101   -4.3483    1.9168 P.3       1 ACP         1.3755
      2 O1G         5.4630   -3.1367    1.6213 O.co2     1 ACP        -0.8970
      3 O2G         3.4766   -4.7732    1.0118 O.co2     1 ACP        -0.8970
      4 O3G         5.5739   -5.6301    2.2132 O.3       1 ACP        -0.7959
      5 PB          2.7996   -5.3800    4.4134 P.3       1 ACP         1.5194
      6 O1B         2.4464   -4.8525    5.7845 O.co2     1 ACP        -0.8958
      7 O2B         3.4254   -6.7408    4.2118 O.co2     1 ACP        -0.8958
      8 C3B         3.9122   -4.1400    3.6144 C.3       1 ACP        -0.5612
      9 PA          0.1768   -6.1246    3.2414 P.3       1 ACP         1.6019
     10 O1A        -0.6500   -5.9983    4.5024 O.co2     1 ACP        -0.9040
     11 O2A         0.5817   -7.4857    2.7181 O.co2     1 ACP        -0.9040
     12 O3A         1.5224   -5.2153    3.4135 O.3       1 ACP        -0.8156
     13 O5'        -0.5697   -5.2855    2.0524 O.3       1 ACP        -0.5465
     14 C5'        -0.7840   -3.8935    2.2172 C.3       1 ACP         0.2108
     15 C4'        -0.0724   -3.1466    1.1027 C.3       1 ACP         0.0552
     16 O4'        -0.8674   -3.1929   -0.0945 O.3       1 ACP        -0.3428
     17 C3'         0.1338   -1.6715    1.4027 C.3       1 ACP         0.0750
     18 O3'         1.2893   -1.4445    2.1808 O.3       1 ACP        -0.6066
     19 C2'         0.2158   -1.0724    0.0128 C.3       1 ACP         0.1185
     20 O2'         1.5141   -1.2448   -0.5513 O.3       1 ACP        -0.5858
     21 C1'        -0.7897   -1.9176   -0.7583 C.3       1 ACP         0.3826
     22 N9         -2.1040   -1.3333   -0.7704 N.pl3     1 ACP        -0.5729
     23 C8         -3.0822   -1.4850    0.1102 C.ar      1 ACP         0.3288
     24 N7         -4.1844   -0.7999   -0.1888 N.pl3     1 ACP        -0.5338
     25 C5         -3.8875   -0.1651   -1.3445 C.ar      1 ACP        -0.2581
     26 C6         -4.5941    0.6799   -2.1486 C.ar      1 ACP         0.7413
     27 N6         -5.9138    1.0274   -1.7939 N.pl3     1 ACP        -0.9512
     28 N1         -4.0421    1.1824   -3.2748 N.ar      1 ACP        -0.7699
     29 C2         -2.7637    0.7937   -3.5405 C.ar      1 ACP         0.6898
     30 N3         -1.9788   -0.0343   -2.8139 N.ar      1 ACP        -0.6800
     31 C4         -2.5915   -0.4902   -1.7174 C.ar      1 ACP         0.6129
     32 HOG3        6.1918   -5.9233    1.5100 H         1 ACP         0.4199
     33 H3B1        3.3633   -3.1918    3.6023 H         1 ACP         0.0672
     34 H3B2        4.7653   -4.0157    4.2906 H         1 ACP         0.0672
     35 H5'1       -1.8599   -3.6946    2.1849 H         1 ACP         0.0277
     36 H5'2       -0.3934   -3.5881    3.1930 H         1 ACP         0.0277
     37 H4'         0.8886   -3.6447    0.8779 H         1 ACP         0.1249
     38 H3'        -0.7373   -1.2359    1.9870 H         1 ACP         0.0564
     39 HO3'        1.3408   -0.4870    2.3219 H         1 ACP         0.4511
     40 H2'        -0.0384   -0.0310    0.0096 H         1 ACP         0.0716
     41 HO2'        2.1463   -0.7958    0.0370 H         1 ACP         0.4454
     42 H1'        -0.4769   -2.1002   -1.8093 H         1 ACP         0.1310
     43 H8         -3.0031   -2.1011    0.9891 H         1 ACP         0.3565
     44 HN61       -6.3271    0.6117   -0.9836 H         1 ACP         0.4414
     45 HN62       -6.4471    1.6092   -2.4083 H         1 ACP         0.4414
     46 H2         -2.3243    1.1986   -4.4449 H         1 ACP         0.0676
     47 H47        -5.0436   -0.7722    0.3425 H         1 ACP         0.5052
@<TRIPOS>BOND
     1    1    2 2
     2    1    3 1
     3    1    4 1
     4    1    8 1
     5    4   32 1
     6    5    6 2
     7    5    7 1
     8    5    8 1
     9    5   12 1
    10    8   33 1
    11    8   34 1
    12    9   10 2
    13    9   11 1
    14    9   12 1
    15    9   13 1
    16   13   14 1
    17   14   15 1
    18   14   35 1
    19   14   36 1
    20   15   16 1
    21   15   17 1
    22   15   37 1
    23   16   21 1
    24   17   18 1
    25   17   19 1
    26   17   38 1
    27   18   39 1
    28   19   20 1
    29   19   21 1
    30   19   40 1
    31   20   41 1
    32   21   22 1
    33   21   42 1
    34   22   23 ar
    35   22   31 ar
    36   23   24 ar
    37   23   43 1
    38   24   25 ar
    39   24   47 1
    40   25   26 ar
    41   25   31 ar
    42   26   27 1
    43   26   28 ar
    44   27   44 1
    45   27   45 1
    46   28   29 ar
    47   29   30 ar
    48   29   46 1
    49   30   31 ar
@<TRIPOS>SUBSTRUCTURE
     1 ACP         1 GROUP 0 A     ****
@<TRIPOS>MOLECULE
[[5-(6-amino-7,8-dihydropurin-8-ylium-9-yl)-3,4-dihydroxy-tetrahydrofuran-2-yl]methoxy-oxido-phosphoryl]oxy-[[hydroxy(oxido)phosphoryl]methyl]phosphinate
   47    49     1     0     0
SMALL
USER_CHARGES

@<TRIPOS>ATOM
      1 PG         -3.8267   -7.4469    3.3987 P.3       1 ACP         1.3755
      2 O1G        -3.9961   -8.8188    2.7888 O.co2     1 ACP        -0.8970
      3 O2G        -3.3375   -6.2647    2.5941 O.co2     1 ACP        -0.8970
      4 O3G        -5.1912   -7.0337    4.1906 O.3       1 ACP        -0.7959
      5 PB         -2.2119   -6.1970    5.9296 P.3       1 ACP         1.5194
      6 O1B        -1.3033   -6.7396    7.0079 O.co2     1 ACP        -0.8958
      7 O2B        -3.4652   -5.4160    6.2516 O.co2     1 ACP        -0.8958
      8 C3B        -2.7106   -7.6192    4.8605 C.3       1 ACP        -0.5612
      9 PA         -0.7235   -3.8665    4.8526 P.3       1 ACP         1.6019
     10 O1A         0.3457   -3.7994    5.9213 O.co2     1 ACP        -0.9040
     11 O2A        -1.8771   -2.8868    4.8538 O.co2     1 ACP        -0.9040
     12 O3A        -1.3317   -5.3818    4.8256 O.3       1 ACP        -0.8156
     13 O5'         0.0099   -3.8403    3.3910 O.3       1 ACP        -0.5465
     14 C5'        -0.7840   -3.8935    2.2172 C.3       1 ACP         0.2108
     15 C4'        -0.0724   -3.1466    1.1027 C.3       1 ACP         0.0552
     16 O4'        -0.8674   -3.1929   -0.0945 O.3       1 ACP        -0.3428
     17 C3'         0.1338   -1.6715    1.4027 C.3       1 ACP         0.0750
     18 O3'         1.2893   -1.4445    2.1808 O.3       1 ACP        -0.6066
     19 C2'         0.2158   -1.0724    0.0128 C.3       1 ACP         0.1185
     20 O2'         1.5141   -1.2448   -0.5513 O.3       1 ACP        -0.5858
     21 C1'        -0.7897   -1.9176   -0.7583 C.3       1 ACP         0.3826
     22 N9         -2.1040   -1.3333   -0.7704 N.pl3     1 ACP        -0.5729
     23 C8         -3.0822   -1.4850    0.1102 C.ar      1 ACP         0.3288
     24 N7         -4.1844   -0.7999   -0.1888 N.pl3     1 ACP        -0.5338
     25 C5         -3.8875   -0.1651   -1.3445 C.ar      1 ACP        -0.2581
     26 C6         -4.5941    0.6799   -2.1486 C.ar      1 ACP         0.7413
     27 N6         -5.9138    1.0274   -1.7939 N.pl3     1 ACP        -0.9512
     28 N1         -4.0421    1.1824   -3.2748 N.ar      1 ACP        -0.7699
     29 C2         -2.7637    0.7937   -3.5405 C.ar      1 ACP         0.6898
     30 N3         -1.9788   -0.0343   -2.8139 N.ar      1 ACP        -0.6800
     31 C4         -2.5915   -0.4902   -1.7174 C.ar      1 ACP         0.6129
     32 HOG3       -6.0290   -6.9813    3.6831 H         1 ACP         0.4199
     33 H3B1       -1.7834   -8.0646    4.4832 H         1 ACP         0.0672
     34 H3B2       -3.1784   -8.3521    5.5271 H         1 ACP         0.0672
     35 H5'1       -0.9358   -4.9414    1.9395 H         1 ACP         0.0277
     36 H5'2       -1.7558   -3.4349    2.4258 H         1 ACP         0.0277
     37 H4'         0.8886   -3.6447    0.8779 H         1 ACP         0.1249
     38 H3'        -0.7373   -1.2359    1.9870 H         1 ACP         0.0564
     39 HO3'        1.1626   -1.9325    3.0084 H         1 ACP         0.4511
     40 H2'        -0.0384   -0.0310    0.0096 H         1 ACP         0.0716
     41 HO2'        2.1463   -0.7958    0.0370 H         1 ACP         0.4454
     42 H1'        -0.4769   -2.1002   -1.8093 H         1 ACP         0.1310
     43 H8         -3.0031   -2.1011    0.9891 H         1 ACP         0.3565
     44 HN61       -6.3271    0.6117   -0.9836 H         1 ACP         0.4414
     45 HN62       -6.4471    1.6092   -2.4083 H         1 ACP         0.4414
     46 H2         -2.3243    1.1986   -4.4449 H         1 ACP         0.0676
     47 H47        -5.0436   -0.7722    0.3425 H         1 ACP         0.5052
@<TRIPOS>BOND
     1    1    2 2
     2    1    3 1
     3    1    4 1
     4    1    8 1
     5    4   32 1
     6    5    6 2
     7    5    7 1
     8    5    8 1
     9    5   12 1
    10    8   33 1
    11    8   34 1
    12    9   10 2
    13    9   11 1
    14    9   12 1
    15    9   13 1
    16   13   14 1
    17   14   15 1
    18   14   35 1
    19   14   36 1
    20   15   16 1
    21   15   17 1
    22   15   37 1
    23   16   21 1
    24   17   18 1
    25   17   19 1
    26   17   38 1
    27   18   39 1
    28   19   20 1
    29   19   21 1
    30   19   40 1
    31   20   41 1
    32   21   22 1
    33   21   42 1
    34   22   23 ar
    35   22   31 ar
    36   23   24 ar
    37   23   43 1
    38   24   25 ar
    39   24   47 1
    40   25   26 ar
    41   25   31 ar
    42   26   27 1
    43   26   28 ar
    44   27   44 1
    45   27   45 1
    46   28   29 ar
    47   29   30 ar
    48   29   46 1
    49   30   31 ar
@<TRIPOS>SUBSTRUCTURE
     1 ACP         1 GROUP 0 A     ****
@<TRIPOS>MOLECULE
[[5-(6-amino-7,8-dihydropurin-8-ylium-9-yl)-3,4-dihydroxy-tetrahydrofuran-2-yl]methoxy-oxido-phosphoryl]oxy-[[hydroxy(oxido)phosphoryl]methyl]phosphinate
   47    49     1     0     0
SMALL
USER_CHARGES

@<TRIPOS>ATOM
      1 PG         -2.0687   -4.1959    6.6368 P.3       1 ACP         1.3755
      2 O1G        -2.2898   -4.0695    8.1260 O.co2     1 ACP        -0.8970
      3 O2G        -2.5222   -3.1318    5.6640 O.co2     1 ACP        -0.8970
      4 O3G        -0.5047   -4.5584    6.3501 O.3       1 ACP        -0.7959
      5 PB         -2.7936   -6.3845    4.3434 P.3       1 ACP         1.5194
      6 O1B        -3.5171   -5.3531    3.5094 O.co2     1 ACP        -0.8958
      7 O2B        -3.2009   -7.8399    4.3539 O.co2     1 ACP        -0.8958
      8 C3B        -2.8179   -5.7948    6.0943 C.3       1 ACP        -0.5612
      9 PA         -0.3084   -6.4368    2.7224 P.3       1 ACP         1.6019
     10 O1A        -0.6613   -7.7629    2.0847 O.co2     1 ACP        -0.9040
     11 O2A         1.1316   -6.0899    3.0334 O.co2     1 ACP        -0.9040
     12 O3A        -1.1872   -6.2712    4.0888 O.3       1 ACP        -0.8156
     13 O5'        -0.9728   -5.2427    1.8237 O.3       1 ACP        -0.5465
     14 C5'        -0.7840   -3.8935    2.2172 C.3       1 ACP         0.2108
     15 C4'        -0.0724   -3.1466    1.1027 C.3       1 ACP         0.0552
     16 O4'        -0.8674   -3.1929   -0.0945 O.3       1 ACP        -0.3428
     17 C3'         0.1338   -1.6715    1.4027 C.3       1 ACP         0.0750
     18 O3'         1.2893   -1.4445    2.1808 O.3       1 ACP        -0.6066
     19 C2'         0.2158   -1.0724    0.0128 C.3       1 ACP         0.1185
     20 O2'         1.5141   -1.2448   -0.5513 O.3       1 ACP        -0.5858
     21 C1'        -0.7897   -1.9176   -0.7583 C.3       1 ACP         0.3826
     22 N9         -2.1040   -1.3333   -0.7704 N.pl3     1 ACP        -0.5729
     23 C8         -3.0822   -1.4850    0.1102 C.ar      1 ACP         0.3288
     24 N7         -4.1844   -0.7999   -0.1888 N.pl3     1 ACP        -0.5338
     25 C5         -3.8875   -0.1651   -1.3445 C.ar      1 ACP        -0.2581
     26 C6         -4.5941    0.6799   -2.1486 C.ar      1 ACP         0.7413
     27 N6         -5.9138    1.0274   -1.7939 N.pl3     1 ACP        -0.9512
     28 N1         -4.0421    1.1824   -3.2748 N.ar      1 ACP        -0.7699
     29 C2         -2.7637    0.7937   -3.5405 C.ar      1 ACP         0.6898
     30 N3         -1.9788   -0.0343   -2.8139 N.ar      1 ACP        -0.6800
     31 C4         -2.5915   -0.4902   -1.7174 C.ar      1 ACP         0.6129
     32 HOG3        0.1845   -3.9300    6.6539 H         1 ACP         0.4199
     33 H3B1       -3.8710   -5.7533    6.3938 H         1 ACP         0.0672
     34 H3B2       -2.3396   -6.5820    6.6876 H         1 ACP         0.0672
     35 H5'1       -1.7614   -3.4427    2.4167 H         1 ACP         0.0277
     36 H5'2       -0.1870   -3.8723    3.1344 H         1 ACP         0.0277
     37 H4'         0.8886   -3.6447    0.8779 H         1 ACP         0.1249
     38 H3'        -0.7373   -1.2359    1.9870 H         1 ACP         0.0564
     39 HO3'        1.3408   -0.4870    2.3219 H         1 ACP         0.4511
     40 H2'        -0.0384   -0.0310    0.0096 H         1 ACP         0.0716
     41 HO2'        2.1463   -0.7958    0.0370 H         1 ACP         0.4454
     42 H1'        -0.4769   -2.1002   -1.8093 H         1 ACP         0.1310
     43 H8         -3.0031   -2.1011    0.9891 H         1 ACP         0.3565
     44 HN61       -6.4144    1.6837   -2.3586 H         1 ACP         0.4414
     45 HN62       -6.2940    0.6861   -0.9341 H         1 ACP         0.4414
     46 H2         -2.3243    1.1986   -4.4449 H         1 ACP         0.0676
     47 H47        -5.0436   -0.7722    0.3425 H         1 ACP         0.5052
@<TRIPOS>BOND
     1    1    2 2
     2    1    3 1
     3    1    4 1
     4    1    8 1
     5    4   32 1
     6    5    6 2
     7    5    7 1
     8    5    8 1
     9    5   12 1
    10    8   33 1
    11    8   34 1
    12    9   10 2
    13    9   11 1
    14    9   12 1
    15    9   13 1
    16   13   14 1
    17   14   15 1
    18   14   35 1
    19   14   36 1
    20   15   16 1
    21   15   17 1
    22   15   37 1
    23   16   21 1
    24   17   18 1
    25   17   19 1
    26   17   38 1
    27   18   39 1
    28   19   20 1
    29   19   21 1
    30   19   40 1
    31   20   41 1
    32   21   22 1
    33   21   42 1
    34   22   23 ar
    35   22   31 ar
    36   23   24 ar
    37   23   43 1
    38   24   25 ar
    39   24   47 1
    40   25   26 ar
    41   25   31 ar
    42   26   27 1
    43   26   28 ar
    44   27   44 1
    45   27   45 1
    46   28   29 ar
    47   29   30 ar
    48   29   46 1
    49   30   31 ar
@<TRIPOS>SUBSTRUCTURE
     1 ACP         1 GROUP 0 A     ****
@<TRIPOS>MOLECULE
[[5-(6-amino-7,8-dihydropurin-8-ylium-9-yl)-3,4-dihydroxy-tetrahydrofuran-2-yl]methoxy-oxido-phosphoryl]oxy-[[hydroxy(oxido)phosphoryl]methyl]phosphinate
   47    49     1     0     0
SMALL
USER_CHARGES

@<TRIPOS>ATOM
      1 PG          5.9779    2.8004   -2.1586 P.3       1 ACP         1.3755
      2 O1G         6.6824    3.5535   -1.0543 O.co2     1 ACP        -0.8970
      3 O2G         4.5246    2.3981   -2.0565 O.co2     1 ACP        -0.8970
      4 O3G         6.2292    3.5611   -3.5791 O.3       1 ACP        -0.7959
      5 PB          6.4731    0.0255   -3.7804 P.3       1 ACP         1.5194
      6 O1B         7.5112   -1.0719   -3.7550 O.co2     1 ACP        -0.8958
      7 O2B         6.1384    0.7872   -5.0422 O.co2     1 ACP        -0.8958
      8 C3B         6.9518    1.2682   -2.4995 C.3       1 ACP        -0.5612
      9 PA          3.8922   -1.4350   -3.6669 P.3       1 ACP         1.6019
     10 O1A         4.4379   -2.8263   -3.9036 O.co2     1 ACP        -0.9040
     11 O2A         3.1971   -0.6799   -4.7792 O.co2     1 ACP        -0.9040
     12 O3A         5.0972   -0.5008   -3.0818 O.3       1 ACP        -0.8156
     13 O5'         2.9202   -1.4821   -2.3524 O.3       1 ACP        -0.5465
     14 C5'         2.2816   -0.2918   -1.9206 C.3       1 ACP         0.2108
     15 C4'         2.7248    0.0226   -0.4980 C.3       1 ACP         0.0552
     16 O4'         2.4697    1.4219   -0.2462 O.3       1 ACP        -0.3428
     17 C3'         1.9404   -0.7419    0.5596 C.3       1 ACP         0.0750
     18 O3'         2.7418   -0.8086    1.7389 O.3       1 ACP        -0.6066
     19 C2'         0.7477    0.1630    0.7858 C.3       1 ACP         0.1185
     20 O2'         0.1373   -0.0577    2.0407 O.3       1 ACP        -0.5858
     21 C1'         1.3733    1.5427    0.6747 C.3       1 ACP         0.3826
     22 N9          0.4520    2.5240    0.1767 N.pl3     1 ACP        -0.5729
     23 C8         -0.2172    2.5216   -0.9668 C.ar      1 ACP         0.3288
     24 N7         -1.0011    3.5855   -1.1321 N.pl3     1 ACP        -0.5338
     25 C5         -0.8184    4.3200   -0.0123 C.ar      1 ACP        -0.2581
     26 C6         -1.3349    5.5079    0.4144 C.ar      1 ACP         0.7413
     27 N6         -2.2567    6.1930   -0.4036 N.pl3     1 ACP        -0.9512
     28 N1         -0.9716    6.0291    1.6069 N.ar      1 ACP        -0.7699
     29 C2         -0.0765    5.3009    2.3312 C.ar      1 ACP         0.6898
     30 N3          0.4933    4.1191    2.0023 N.ar      1 ACP        -0.6800
     31 C4          0.0865    3.6675    0.8123 C.ar      1 ACP         0.6129
     32 HOG3        5.9242    4.4886   -3.6734 H         1 ACP         0.4199
     33 H3B1        7.0097    0.7277   -1.5482 H         1 ACP         0.0672
     34 H3B2        7.9669    1.5926   -2.7541 H         1 ACP         0.0672
     35 H5'1        2.5581    0.5235   -2.5966 H         1 ACP         0.0277
     36 H5'2        1.1974   -0.4370   -1.9607 H         1 ACP         0.0277
     37 H4'         3.8050   -0.1388   -0.4008 H         1 ACP         0.1249
     38 H3'         1.6784   -1.7629    0.2714 H         1 ACP         0.0564
     39 HO3'        2.2232   -1.2979    2.3953 H         1 ACP         0.4511
     40 H2'        -0.0011    0.0027    0.0003 H         1 ACP         0.0716
     41 HO2'       -0.1563   -0.9855    2.0596 H         1 ACP         0.4454
     42 H1'         1.7826    1.9024    1.6451 H         1 ACP         0.1310
     43 H8         -0.1423    1.7373   -1.6999 H         1 ACP         0.3565
     44 HN61       -2.4811    5.8206   -1.3042 H         1 ACP         0.4414
     45 HN62       -2.5986    7.0863   -0.1113 H         1 ACP         0.4414
     46 H2          0.2128    5.7222    3.2871 H         1 ACP         0.0676
     47 H47        -1.5947    3.7835   -1.9255 H         1 ACP         0.5052
@<TRIPOS>BOND
     1    1    2 2
     2    1    3 1
     3    1    4 1
     4    1    8 1
     5    4   32 1
     6    5    6 2
     7    5    7 1
     8    5    8 1
     9    5   12 1
    10    8   33 1
    11    8   34 1
    12    9   10 2
    13    9   11 1
    14    9   12 1
    15    9   13 1
    16   13   14 1
    17   14   15 1
    18   14   35 1
    19   14   36 1
    20   15   16 1
    21   15   17 1
    22   15   37 1
    23   16   21 1
    24   17   18 1
    25   17   19 1
    26   17   38 1
    27   18   39 1
    28   19   20 1
    29   19   21 1
    30   19   40 1
    31   20   41 1
    32   21   22 1
    33   21   42 1
    34   22   23 ar
    35   22   31 ar
    36   23   24 ar
    37   23   43 1
    38   24   25 ar
    39   24   47 1
    40   25   26 ar
    41   25   31 ar
    42   26   27 1
    43   26   28 ar
    44   27   44 1
    45   27   45 1
    46   28   29 ar
    47   29   30 ar
    48   29   46 1
    49   30   31 ar
@<TRIPOS>SUBSTRUCTURE
     1 ACP         1 GROUP 0 A     ****
@<TRIPOS>MOLECULE
[[5-(6-amino-7,8-dihydropurin-8-ylium-9-yl)-3,4-dihydroxy-tetrahydrofuran-2-yl]methoxy-oxido-phosphoryl]oxy-[[hydroxy(oxido)phosphoryl]methyl]phosphinate
   47    49     1     0     0
SMALL
USER_CHARGES

@<TRIPOS>ATOM
      1 PG          3.3520   -7.2978    1.8553 P.3       1 ACP         1.3755
      2 O1G         2.9179   -5.8722    1.6063 O.co2     1 ACP        -0.8970
      3 O2G         4.0528   -8.1206    0.7988 O.co2     1 ACP        -0.8970
      4 O3G         4.1994   -7.3710    3.2468 O.3       1 ACP        -0.7959
      5 PB          0.8862   -7.8278    3.9082 P.3       1 ACP         1.5194
      6 O1B         1.8198   -7.9248    5.0920 O.co2     1 ACP        -0.8958
      7 O2B        -0.4069   -8.6070    3.8375 O.co2     1 ACP        -0.8958
      8 C3B         1.8640   -8.2484    2.3978 C.3       1 ACP        -0.5612
      9 PA         -0.0671   -5.0728    4.4633 P.3       1 ACP         1.6019
     10 O1A         0.8700   -4.7631    5.6103 O.co2     1 ACP        -0.9040
     11 O2A        -1.5164   -5.4219    4.7247 O.co2     1 ACP        -0.9040
     12 O3A         0.5967   -6.2612    3.5612 O.3       1 ACP        -0.8156
     13 O5'         0.0099   -3.8403    3.3910 O.3       1 ACP        -0.5465
     14 C5'        -0.7840   -3.8935    2.2172 C.3       1 ACP         0.2108
     15 C4'        -0.0724   -3.1466    1.1027 C.3       1 ACP         0.0552
     16 O4'        -0.8674   -3.1929   -0.0945 O.3       1 ACP        -0.3428
     17 C3'         0.1338   -1.6715    1.4027 C.3       1 ACP         0.0750
     18 O3'         1.2893   -1.4445    2.1808 O.3       1 ACP        -0.6066
     19 C2'         0.2158   -1.0724    0.0128 C.3       1 ACP         0.1185
     20 O2'         1.5141   -1.2448   -0.5513 O.3       1 ACP        -0.5858
     21 C1'        -0.7897   -1.9176   -0.7583 C.3       1 ACP         0.3826
     22 N9         -2.1040   -1.3333   -0.7704 N.pl3     1 ACP        -0.5729
     23 C8         -3.0822   -1.4850    0.1102 C.ar      1 ACP         0.3288
     24 N7         -4.1844   -0.7999   -0.1888 N.pl3     1 ACP        -0.5338
     25 C5         -3.8875   -0.1651   -1.3445 C.ar      1 ACP        -0.2581
     26 C6         -4.5941    0.6799   -2.1486 C.ar      1 ACP         0.7413
     27 N6         -5.9138    1.0274   -1.7939 N.pl3     1 ACP        -0.9512
     28 N1         -4.0421    1.1824   -3.2748 N.ar      1 ACP        -0.7699
     29 C2         -2.7637    0.7937   -3.5405 C.ar      1 ACP         0.6898
     30 N3         -1.9788   -0.0343   -2.8139 N.ar      1 ACP        -0.6800
     31 C4         -2.5915   -0.4902   -1.7174 C.ar      1 ACP         0.6129
     32 HOG3        5.0216   -6.8413    3.3223 H         1 ACP         0.4199
     33 H3B1        2.1949   -9.2857    2.5206 H         1 ACP         0.0672
     34 H3B2        1.1567   -8.2272    1.5613 H         1 ACP         0.0672
     35 H5'1       -0.9358   -4.9414    1.9395 H         1 ACP         0.0277
     36 H5'2       -1.7558   -3.4349    2.4258 H         1 ACP         0.0277
     37 H4'         0.8886   -3.6447    0.8779 H         1 ACP         0.1249
     38 H3'        -0.7373   -1.2359    1.9870 H         1 ACP         0.0564
     39 HO3'        1.1626   -1.9325    3.0084 H         1 ACP         0.4511
     40 H2'        -0.0384   -0.0310    0.0096 H         1 ACP         0.0716
     41 HO2'        1.4998   -0.8412   -1.4369 H         1 ACP         0.4454
     42 H1'        -0.4769   -2.1002   -1.8093 H         1 ACP         0.1310
     43 H8         -3.0031   -2.1011    0.9891 H         1 ACP         0.3565
     44 HN61       -6.3271    0.6117   -0.9836 H         1 ACP         0.4414
     45 HN62       -6.4471    1.6092   -2.4083 H         1 ACP         0.4414
     46 H2         -2.3243    1.1986   -4.4449 H         1 ACP         0.0676
     47 H47        -5.0436   -0.7722    0.3425 H         1 ACP         0.5052
@<TRIPOS>BOND
     1    1    2 2
     2    1    3 1
     3    1    4 1
     4    1    8 1
     5    4   32 1
     6    5    6 2
     7    5    7 1
     8    5    8 1
     9    5   12 1
    10    8   33 1
    11    8   34 1
    12    9   10 2
    13    9   11 1
    14    9   12 1
    15    9   13 1
    16   13   14 1
    17   14   15 1
    18   14   35 1
    19   14   36 1
    20   15   16 1
    21   15   17 1
    22   15   37 1
    23   16   21 1
    24   17   18 1
    25   17   19 1
    26   17   38 1
    27   18   39 1
    28   19   20 1
    29   19   21 1
    30   19   40 1
    31   20   41 1
    32   21   22 1
    33   21   42 1
    34   22   23 ar
    35   22   31 ar
    36   23   24 ar
    37   23   43 1
    38   24   25 ar
    39   24   47 1
    40   25   26 ar
    41   25   31 ar
    42   26   27 1
    43   26   28 ar
    44   27   44 1
    45   27   45 1
    46   28   29 ar
    47   29   30 ar
    48   29   46 1
    49   30   31 ar
@<TRIPOS>SUBSTRUCTURE
     1 ACP         1 GROUP 0 A     ****
@<TRIPOS>MOLECULE
[[5-(6-amino-7,8-dihydropurin-8-ylium-9-yl)-3,4-dihydroxy-tetrahydrofuran-2-yl]methoxy-oxido-phosphoryl]oxy-[[hydroxy(oxido)phosphoryl]methyl]phosphinate
   47    49     1     0     0
SMALL
USER_CHARGES

@<TRIPOS>ATOM
      1 PG          4.7499   -3.6308   -6.8300 P.3       1 ACP         1.3755
      2 O1G         4.6029   -5.0989   -7.1556 O.co2     1 ACP        -0.8970
      3 O2G         5.8475   -3.1137   -5.9288 O.co2     1 ACP        -0.8970
      4 O3G         4.7331   -2.7650   -8.2120 O.3       1 ACP        -0.7959
      5 PB          2.8430   -1.3106   -5.5828 P.3       1 ACP         1.5194
      6 O1B         1.4215   -1.2348   -5.0765 O.co2     1 ACP        -0.8958
      7 O2B         3.3576   -0.4011   -6.6746 O.co2     1 ACP        -0.8958
      8 C3B         3.1420   -3.0498   -6.1306 C.3       1 ACP        -0.5612
      9 PA          4.4357   -0.0473   -3.4208 P.3       1 ACP         1.6019
     10 O1A         5.0077    1.0009   -4.3502 O.co2     1 ACP        -0.9040
     11 O2A         5.2684   -0.6124   -2.2904 O.co2     1 ACP        -0.9040
     12 O3A         3.8786   -1.2888   -4.3238 O.3       1 ACP        -0.8156
     13 O5'         3.0198    0.5138   -2.8245 O.3       1 ACP        -0.5465
     14 C5'         2.2816   -0.2918   -1.9206 C.3       1 ACP         0.2108
     15 C4'         2.7248    0.0226   -0.4980 C.3       1 ACP         0.0552
     16 O4'         2.4697    1.4219   -0.2462 O.3       1 ACP        -0.3428
     17 C3'         1.9404   -0.7419    0.5596 C.3       1 ACP         0.0750
     18 O3'         2.7418   -0.8086    1.7389 O.3       1 ACP        -0.6066
     19 C2'         0.7477    0.1630    0.7858 C.3       1 ACP         0.1185
     20 O2'         0.1373   -0.0577    2.0407 O.3       1 ACP        -0.5858
     21 C1'         1.3733    1.5427    0.6747 C.3       1 ACP         0.3826
     22 N9          0.4520    2.5240    0.1767 N.pl3     1 ACP        -0.5729
     23 C8         -0.2172    2.5216   -0.9668 C.ar      1 ACP         0.3288
     24 N7         -1.0011    3.5855   -1.1321 N.pl3     1 ACP        -0.5338
     25 C5         -0.8184    4.3200   -0.0123 C.ar      1 ACP        -0.2581
     26 C6         -1.3349    5.5079    0.4144 C.ar      1 ACP         0.7413
     27 N6         -2.2567    6.1930   -0.4036 N.pl3     1 ACP        -0.9512
     28 N1         -0.9716    6.0291    1.6069 N.ar      1 ACP        -0.7699
     29 C2         -0.0765    5.3009    2.3312 C.ar      1 ACP         0.6898
     30 N3          0.4933    4.1191    2.0023 N.ar      1 ACP        -0.6800
     31 C4          0.0865    3.6675    0.8123 C.ar      1 ACP         0.6129
     32 HOG3        5.4246   -2.9437   -8.8844 H         1 ACP         0.4199
     33 H3B1        2.9404   -3.6880   -5.2631 H         1 ACP         0.0672
     34 H3B2        2.3761   -3.2683   -6.8829 H         1 ACP         0.0672
     35 H5'1        1.2153   -0.0781   -2.0454 H         1 ACP         0.0277
     36 H5'2        2.4645   -1.3454   -2.1547 H         1 ACP         0.0277
     37 H4'         3.8050   -0.1388   -0.4008 H         1 ACP         0.1249
     38 H3'         1.6784   -1.7629    0.2714 H         1 ACP         0.0564
     39 HO3'        2.2232   -1.2979    2.3953 H         1 ACP         0.4511
     40 H2'        -0.0011    0.0027    0.0003 H         1 ACP         0.0716
     41 HO2'       -0.6141    0.5574    2.1082 H         1 ACP         0.4454
     42 H1'         1.7826    1.9024    1.6451 H         1 ACP         0.1310
     43 H8         -0.1423    1.7373   -1.6999 H         1 ACP         0.3565
     44 HN61       -2.4811    5.8206   -1.3042 H         1 ACP         0.4414
     45 HN62       -2.5986    7.0863   -0.1113 H         1 ACP         0.4414
     46 H2          0.2128    5.7222    3.2871 H         1 ACP         0.0676
     47 H47        -1.5947    3.7835   -1.9255 H         1 ACP         0.5052
@<TRIPOS>BOND
     1    1    2 2
     2    1    3 1
     3    1    4 1
     4    1    8 1
     5    4   32 1
     6    5    6 2
     7    5    7 1
     8    5    8 1
     9    5   12 1
    10    8   33 1
    11    8   34 1
    12    9   10 2
    13    9   11 1
    14    9   12 1
    15    9   13 1
    16   13   14 1
    17   14   15 1
    18   14   35 1
    19   14   36 1
    20   15   16 1
    21   15   17 1
    22   15   37 1
    23   16   21 1
    24   17   18 1
    25   17   19 1
    26   17   38 1
    27   18   39 1
    28   19   20 1
    29   19   21 1
    30   19   40 1
    31   20   41 1
    32   21   22 1
    33   21   42 1
    34   22   23 ar
    35   22   31 ar
    36   23   24 ar
    37   23   43 1
    38   24   25 ar
    39   24   47 1
    40   25   26 ar
    41   25   31 ar
    42   26   27 1
    43   26   28 ar
    44   27   44 1
    45   27   45 1
    46   28   29 ar
    47   29   30 ar
    48   29   46 1
    49   30   31 ar
@<TRIPOS>SUBSTRUCTURE
     1 ACP         1 GROUP 0 A     ****
@<TRIPOS>MOLECULE
[[5-(6-amino-7,8-dihydropurin-8-ylium-9-yl)-3,4-dihydroxy-tetrahydrofuran-2-yl]methoxy-oxido-phosphoryl]oxy-[[hydroxy(oxido)phosphoryl]methyl]phosphinate
   47    49     1     0     0
SMALL
USER_CHARGES

@<TRIPOS>ATOM
      1 PG         -1.2226   -4.2640    0.4432 P.3       1 ACP         1.3755
      2 O1G        -2.0422   -3.9817    1.6806 O.co2     1 ACP        -0.8970
      3 O2G         0.2785   -4.0898    0.4165 O.co2     1 ACP        -0.8970
      4 O3G        -1.6052   -5.7402   -0.1351 O.3       1 ACP        -0.7959
      5 PB         -1.2397   -3.2626   -2.6507 P.3       1 ACP         1.5194
      6 O1B        -2.0742   -2.3102   -3.4750 O.co2     1 ACP        -0.8958
      7 O2B        -1.0448   -4.7086   -3.0447 O.co2     1 ACP        -0.8958
      8 C3B        -1.9204   -3.2483   -0.9330 C.3       1 ACP        -0.5612
      9 PA          1.5537   -2.4539   -3.2418 P.3       1 ACP         1.6019
     10 O1A         1.2540   -1.5265   -4.3993 O.co2     1 ACP        -0.9040
     11 O2A         2.1054   -3.8415   -3.4886 O.co2     1 ACP        -0.9040
     12 O3A         0.2083   -2.5875   -2.3259 O.3       1 ACP        -0.8156
     13 O5'         2.5237   -1.6631   -2.1889 O.3       1 ACP        -0.5465
     14 C5'         2.2816   -0.2918   -1.9206 C.3       1 ACP         0.2108
     15 C4'         2.7248    0.0226   -0.4980 C.3       1 ACP         0.0552
     16 O4'         2.4697    1.4219   -0.2462 O.3       1 ACP        -0.3428
     17 C3'         1.9404   -0.7419    0.5596 C.3       1 ACP         0.0750
     18 O3'         2.7418   -0.8086    1.7389 O.3       1 ACP        -0.6066
     19 C2'         0.7477    0.1630    0.7858 C.3       1 ACP         0.1185
     20 O2'         0.1373   -0.0577    2.0407 O.3       1 ACP        -0.5858
     21 C1'         1.3733    1.5427    0.6747 C.3       1 ACP         0.3826
     22 N9          0.4520    2.5240    0.1767 N.pl3     1 ACP        -0.5729
     23 C8         -0.8602    2.5861    0.3496 C.ar      1 ACP         0.3288
     24 N7         -1.4308    3.6326   -0.2443 N.pl3     1 ACP        -0.5338
     25 C5         -0.4080    4.2856   -0.8394 C.ar      1 ACP        -0.2581
     26 C6         -0.3432    5.4196   -1.5943 C.ar      1 ACP         0.7413
     27 N6         -1.5276    6.1333   -1.8702 N.pl3     1 ACP        -0.9512
     28 N1          0.8395    5.8603   -2.0764 N.ar      1 ACP        -0.7699
     29 C2          1.9319    5.1095   -1.7617 C.ar      1 ACP         0.6898
     30 N3          1.9773    3.9761   -1.0249 N.ar      1 ACP        -0.6800
     31 C4          0.7724    3.6031   -0.5836 C.ar      1 ACP         0.6129
     32 HOG3       -1.4641   -6.5200    0.4430 H         1 ACP         0.4199
     33 H3B1       -1.8816   -2.2079   -0.5918 H         1 ACP         0.0672
     34 H3B2       -2.9769   -3.5247   -1.0216 H         1 ACP         0.0672
     35 H5'1        2.8429    0.3140   -2.6391 H         1 ACP         0.0277
     36 H5'2        1.2125   -0.0906   -2.0420 H         1 ACP         0.0277
     37 H4'         3.8050   -0.1388   -0.4008 H         1 ACP         0.1249
     38 H3'         1.6784   -1.7629    0.2714 H         1 ACP         0.0564
     39 HO3'        2.2232   -1.2979    2.3953 H         1 ACP         0.4511
     40 H2'        -0.0011    0.0027    0.0003 H         1 ACP         0.0716
     41 HO2'       -0.1563   -0.9855    2.0596 H         1 ACP         0.4454
     42 H1'         1.7826    1.9024    1.6451 H         1 ACP         0.1310
     43 H8         -1.4217    1.8638    0.9164 H         1 ACP         0.3565
     44 HN61       -2.4023    5.7711   -1.5477 H         1 ACP         0.4414
     45 HN62       -1.4857    6.9379   -2.4627 H         1 ACP         0.4414
     46 H2          2.8789    5.4660   -2.1503 H         1 ACP         0.0676
     47 H47        -2.4129    3.8706   -0.2402 H         1 ACP         0.5052
@<TRIPOS>BOND
     1    1    2 2
     2    1    3 1
     3    1    4 1
     4    1    8 1
     5    4   32 1
     6    5    6 2
     7    5    7 1
     8    5    8 1
     9    5   12 1
    10    8   33 1
    11    8   34 1
    12    9   10 2
    13    9   11 1
    14    9   12 1
    15    9   13 1
    16   13   14 1
    17   14   15 1
    18   14   35 1
    19   14   36 1
    20   15   16 1
    21   15   17 1
    22   15   37 1
    23   16   21 1
    24   17   18 1
    25   17   19 1
    26   17   38 1
    27   18   39 1
    28   19   20 1
    29   19   21 1
    30   19   40 1
    31   20   41 1
    32   21   22 1
    33   21   42 1
    34   22   23 ar
    35   22   31 ar
    36   23   24 ar
    37   23   43 1
    38   24   25 ar
    39   24   47 1
    40   25   26 ar
    41   25   31 ar
    42   26   27 1
    43   26   28 ar
    44   27   44 1
    45   27   45 1
    46   28   29 ar
    47   29   30 ar
    48   29   46 1
    49   30   31 ar
@<TRIPOS>SUBSTRUCTURE
     1 ACP         1 GROUP 0 A     ****
@<TRIPOS>MOLECULE
[[5-(6-amino-7,8-dihydropurin-8-ylium-9-yl)-3,4-dihydroxy-tetrahydrofuran-2-yl]methoxy-oxido-phosphoryl]oxy-[[hydroxy(oxido)phosphoryl]methyl]phosphinate
   47    49     1     0     0
SMALL
USER_CHARGES

@<TRIPOS>ATOM
      1 PG         -0.3345   -5.6184    7.0757 P.3       1 ACP         1.3755
      2 O1G         0.0009   -4.6239    8.1626 O.co2     1 ACP        -0.8970
      3 O2G         0.4818   -5.7296    5.8087 O.co2     1 ACP        -0.8970
      4 O3G        -0.5150   -7.0997    7.7337 O.3       1 ACP        -0.7959
      5 PB         -2.9482   -6.3157    5.2708 P.3       1 ACP         1.5194
      6 O1B        -4.3573   -5.7830    5.1563 O.co2     1 ACP        -0.8958
      7 O2B        -2.6592   -7.7737    5.5446 O.co2     1 ACP        -0.8958
      8 C3B        -2.0899   -5.3310    6.5776 C.3       1 ACP        -0.5612
      9 PA         -2.2655   -6.0670    2.3934 P.3       1 ACP         1.6019
     10 O1A        -3.5204   -5.3466    1.9506 O.co2     1 ACP        -0.9040
     11 O2A        -2.0841   -7.5430    2.1125 O.co2     1 ACP        -0.9040
     12 O3A        -2.0647   -5.8165    3.9947 O.3       1 ACP        -0.8156
     13 O5'        -0.9728   -5.2427    1.8237 O.3       1 ACP        -0.5465
     14 C5'        -0.7840   -3.8935    2.2172 C.3       1 ACP         0.2108
     15 C4'        -0.0724   -3.1466    1.1027 C.3       1 ACP         0.0552
     16 O4'        -0.8674   -3.1929   -0.0945 O.3       1 ACP        -0.3428
     17 C3'         0.1338   -1.6715    1.4027 C.3       1 ACP         0.0750
     18 O3'         1.2893   -1.4445    2.1808 O.3       1 ACP        -0.6066
     19 C2'         0.2158   -1.0724    0.0128 C.3       1 ACP         0.1185
     20 O2'         1.5141   -1.2448   -0.5513 O.3       1 ACP        -0.5858
     21 C1'        -0.7897   -1.9176   -0.7583 C.3       1 ACP         0.3826
     22 N9         -2.1040   -1.3333   -0.7704 N.pl3     1 ACP        -0.5729
     23 C8         -3.0822   -1.4850    0.1102 C.ar      1 ACP         0.3288
     24 N7         -4.1844   -0.7999   -0.1888 N.pl3     1 ACP        -0.5338
     25 C5         -3.8875   -0.1651   -1.3445 C.ar      1 ACP        -0.2581
     26 C6         -4.5941    0.6799   -2.1486 C.ar      1 ACP         0.7413
     27 N6         -5.9138    1.0274   -1.7939 N.pl3     1 ACP        -0.9512
     28 N1         -4.0421    1.1824   -3.2748 N.ar      1 ACP        -0.7699
     29 C2         -2.7637    0.7937   -3.5405 C.ar      1 ACP         0.6898
     30 N3         -1.9788   -0.0343   -2.8139 N.ar      1 ACP        -0.6800
     31 C4         -2.5915   -0.4902   -1.7174 C.ar      1 ACP         0.6129
     32 HOG3        0.2453   -7.4956    8.2105 H         1 ACP         0.4199
     33 H3B1       -2.1488   -4.2823    6.2657 H         1 ACP         0.0672
     34 H3B2       -2.6944   -5.4371    7.4853 H         1 ACP         0.0672
     35 H5'1       -1.7614   -3.4427    2.4167 H         1 ACP         0.0277
     36 H5'2       -0.1870   -3.8723    3.1344 H         1 ACP         0.0277
     37 H4'         0.8886   -3.6447    0.8779 H         1 ACP         0.1249
     38 H3'        -0.7373   -1.2359    1.9870 H         1 ACP         0.0564
     39 HO3'        1.1626   -1.9325    3.0084 H         1 ACP         0.4511
     40 H2'        -0.0384   -0.0310    0.0096 H         1 ACP         0.0716
     41 HO2'        1.4998   -0.8412   -1.4369 H         1 ACP         0.4454
     42 H1'        -0.4769   -2.1002   -1.8093 H         1 ACP         0.1310
     43 H8         -3.0031   -2.1011    0.9891 H         1 ACP         0.3565
     44 HN61       -6.4144    1.6837   -2.3586 H         1 ACP         0.4414
     45 HN62       -6.2940    0.6861   -0.9341 H         1 ACP         0.4414
     46 H2         -2.3243    1.1986   -4.4449 H         1 ACP         0.0676
     47 H47        -5.0436   -0.7722    0.3425 H         1 ACP         0.5052
@<TRIPOS>BOND
     1    1    2 2
     2    1    3 1
     3    1    4 1
     4    1    8 1
     5    4   32 1
     6    5    6 2
     7    5    7 1
     8    5    8 1
     9    5   12 1
    10    8   33 1
    11    8   34 1
    12    9   10 2
    13    9   11 1
    14    9   12 1
    15    9   13 1
    16   13   14 1
    17   14   15 1
    18   14   35 1
    19   14   36 1
    20   15   16 1
    21   15   17 1
    22   15   37 1
    23   16   21 1
    24   17   18 1
    25   17   19 1
    26   17   38 1
    27   18   39 1
    28   19   20 1
    29   19   21 1
    30   19   40 1
    31   20   41 1
    32   21   22 1
    33   21   42 1
    34   22   23 ar
    35   22   31 ar
    36   23   24 ar
    37   23   43 1
    38   24   25 ar
    39   24   47 1
    40   25   26 ar
    41   25   31 ar
    42   26   27 1
    43   26   28 ar
    44   27   44 1
    45   27   45 1
    46   28   29 ar
    47   29   30 ar
    48   29   46 1
    49   30   31 ar
@<TRIPOS>SUBSTRUCTURE
     1 ACP         1 GROUP 0 A     ****
@<TRIPOS>MOLECULE
[[5-(6-amino-7,8-dihydropurin-8-ylium-9-yl)-3,4-dihydroxy-tetrahydrofuran-2-yl]methoxy-oxido-phosphoryl]oxy-[[hydroxy(oxido)phosphoryl]methyl]phosphinate
   47    49     1     0     0
SMALL
USER_CHARGES

@<TRIPOS>ATOM
      1 PG          3.5797    0.8185   -6.9561 P.3       1 ACP         1.3755
      2 O1G         4.2598    1.1841   -8.2548 O.co2     1 ACP        -0.8970
      3 O2G         4.1072    1.2767   -5.6160 O.co2     1 ACP        -0.8970
      4 O3G         1.9903    1.1691   -7.0594 O.3       1 ACP        -0.7959
      5 PB          2.6765   -1.9378   -5.4856 P.3       1 ACP         1.5194
      6 O1B         2.7560   -3.4119   -5.8073 O.co2     1 ACP        -0.8958
      7 O2B         1.3672   -1.2538   -5.1659 O.co2     1 ACP        -0.8958
      8 C3B         3.4442   -1.0228   -6.8954 C.3       1 ACP        -0.5612
      9 PA          3.9654   -2.1111   -2.8181 P.3       1 ACP         1.6019
     10 O1A         5.0498   -1.2970   -2.1465 O.co2     1 ACP        -0.9040
     11 O2A         4.0486   -3.6217   -2.8585 O.co2     1 ACP        -0.9040
     12 O3A         3.7791   -1.5622   -4.3449 O.3       1 ACP        -0.8156
     13 O5'         2.5237   -1.6631   -2.1889 O.3       1 ACP        -0.5465
     14 C5'         2.2816   -0.2918   -1.9206 C.3       1 ACP         0.2108
     15 C4'         2.7248    0.0226   -0.4980 C.3       1 ACP         0.0552
     16 O4'         2.4697    1.4219   -0.2462 O.3       1 ACP        -0.3428
     17 C3'         1.9404   -0.7419    0.5596 C.3       1 ACP         0.0750
     18 O3'         2.7418   -0.8086    1.7389 O.3       1 ACP        -0.6066
     19 C2'         0.7477    0.1630    0.7858 C.3       1 ACP         0.1185
     20 O2'         0.1373   -0.0577    2.0407 O.3       1 ACP        -0.5858
     21 C1'         1.3733    1.5427    0.6747 C.3       1 ACP         0.3826
     22 N9          0.4520    2.5240    0.1767 N.pl3     1 ACP        -0.5729
     23 C8          0.1928    2.8484   -1.0815 C.ar      1 ACP         0.3288
     24 N7         -0.7248    3.8048   -1.2110 N.pl3     1 ACP        -0.5338
     25 C5         -1.0765    4.1129    0.0571 C.ar      1 ACP        -0.2581
     26 C6         -1.9614    5.0063    0.5851 C.ar      1 ACP         0.7413
     27 N6         -2.7145    5.8254   -0.2810 N.pl3     1 ACP        -0.9512
     28 N1         -2.1199    5.1113    1.9228 N.ar      1 ACP        -0.7699
     29 C2         -1.3522    4.2822    2.6839 C.ar      1 ACP         0.6898
     30 N3         -0.4501    3.3660    2.2638 N.ar      1 ACP        -0.6800
     31 C4         -0.3487    3.3198    0.9322 C.ar      1 ACP         0.6129
     32 HOG3        1.7263    2.0986   -7.2281 H         1 ACP         0.4199
     33 H3B1        4.4661   -1.4054   -6.9948 H         1 ACP         0.0672
     34 H3B2        2.8924   -1.3259   -7.7920 H         1 ACP         0.0672
     35 H5'1        2.8429    0.3140   -2.6391 H         1 ACP         0.0277
     36 H5'2        1.2125   -0.0906   -2.0420 H         1 ACP         0.0277
     37 H4'         3.8050   -0.1388   -0.4008 H         1 ACP         0.1249
     38 H3'         1.6784   -1.7629    0.2714 H         1 ACP         0.0564
     39 HO3'        3.5554   -1.2733    1.4914 H         1 ACP         0.4511
     40 H2'        -0.0011    0.0027    0.0003 H         1 ACP         0.0716
     41 HO2'        0.8082    0.1199    2.7232 H         1 ACP         0.4454
     42 H1'         1.7826    1.9024    1.6451 H         1 ACP         0.1310
     43 H8          0.6728    2.3873   -1.9272 H         1 ACP         0.3565
     44 HN61       -2.5537    5.7714   -1.2667 H         1 ACP         0.4414
     45 HN62       -3.3283    6.5126    0.1080 H         1 ACP         0.4414
     46 H2         -1.4818    4.3694    3.7565 H         1 ACP         0.0676
     47 H47        -1.0701    4.2005   -2.0743 H         1 ACP         0.5052
@<TRIPOS>BOND
     1    1    2 2
     2    1    3 1
     3    1    4 1
     4    1    8 1
     5    4   32 1
     6    5    6 2
     7    5    7 1
     8    5    8 1
     9    5   12 1
    10    8   33 1
    11    8   34 1
    12    9   10 2
    13    9   11 1
    14    9   12 1
    15    9   13 1
    16   13   14 1
    17   14   15 1
    18   14   35 1
    19   14   36 1
    20   15   16 1
    21   15   17 1
    22   15   37 1
    23   16   21 1
    24   17   18 1
    25   17   19 1
    26   17   38 1
    27   18   39 1
    28   19   20 1
    29   19   21 1
    30   19   40 1
    31   20   41 1
    32   21   22 1
    33   21   42 1
    34   22   23 ar
    35   22   31 ar
    36   23   24 ar
    37   23   43 1
    38   24   25 ar
    39   24   47 1
    40   25   26 ar
    41   25   31 ar
    42   26   27 1
    43   26   28 ar
    44   27   44 1
    45   27   45 1
    46   28   29 ar
    47   29   30 ar
    48   29   46 1
    49   30   31 ar
@<TRIPOS>SUBSTRUCTURE
     1 ACP         1 GROUP 0 A     ****
@<TRIPOS>MOLECULE
[[5-(6-amino-7,8-dihydropurin-8-ylium-9-yl)-3,4-dihydroxy-tetrahydrofuran-2-yl]methoxy-oxido-phosphoryl]oxy-[[hydroxy(oxido)phosphoryl]methyl]phosphinate
   47    49     1     0     0
SMALL
USER_CHARGES

@<TRIPOS>ATOM
      1 PG         -2.7605   -8.0070    1.5486 P.3       1 ACP         1.3755
      2 O1G        -3.6548   -9.1905    1.2618 O.co2     1 ACP        -0.8970
      3 O2G        -2.2841   -7.0767    0.4569 O.co2     1 ACP        -0.8970
      4 O3G        -3.3975   -7.1291    2.7665 O.3       1 ACP        -0.7959
      5 PB          0.1206   -7.5481    2.9852 P.3       1 ACP         1.5194
      6 O1B         0.6881   -6.8753    1.7572 O.co2     1 ACP        -0.8958
      7 O2B         0.9798   -8.3596    3.9273 O.co2     1 ACP        -0.8958
      8 C3B        -1.2635   -8.6379    2.4279 C.3       1 ACP        -0.5612
      9 PA         -0.3451   -5.0629    4.5388 P.3       1 ACP         1.6019
     10 O1A         0.8520   -5.3059    5.4318 O.co2     1 ACP        -0.9040
     11 O2A        -1.5957   -4.4100    5.0867 O.co2     1 ACP        -0.9040
     12 O3A        -0.7639   -6.4786    3.8407 O.3       1 ACP        -0.8156
     13 O5'         0.1597   -4.2446    3.2157 O.3       1 ACP        -0.5465
     14 C5'        -0.7840   -3.8935    2.2172 C.3       1 ACP         0.2108
     15 C4'        -0.0724   -3.1466    1.1027 C.3       1 ACP         0.0552
     16 O4'        -0.8674   -3.1929   -0.0945 O.3       1 ACP        -0.3428
     17 C3'         0.1338   -1.6715    1.4027 C.3       1 ACP         0.0750
     18 O3'         1.2893   -1.4445    2.1808 O.3       1 ACP        -0.6066
     19 C2'         0.2158   -1.0724    0.0128 C.3       1 ACP         0.1185
     20 O2'         1.5141   -1.2448   -0.5513 O.3       1 ACP        -0.5858
     21 C1'        -0.7897   -1.9176   -0.7583 C.3       1 ACP         0.3826
     22 N9         -2.1040   -1.3333   -0.7704 N.pl3     1 ACP        -0.5729
     23 C8         -3.0822   -1.4850    0.1102 C.ar      1 ACP         0.3288
     24 N7         -4.1844   -0.7999   -0.1888 N.pl3     1 ACP        -0.5338
     25 C5         -3.8875   -0.1651   -1.3445 C.ar      1 ACP        -0.2581
     26 C6         -4.5941    0.6799   -2.1486 C.ar      1 ACP         0.7413
     27 N6         -5.9138    1.0274   -1.7939 N.pl3     1 ACP        -0.9512
     28 N1         -4.0421    1.1824   -3.2748 N.ar      1 ACP        -0.7699
     29 C2         -2.7637    0.7937   -3.5405 C.ar      1 ACP         0.6898
     30 N3         -1.9788   -0.0343   -2.8139 N.ar      1 ACP        -0.6800
     31 C4         -2.5915   -0.4902   -1.7174 C.ar      1 ACP         0.6129
     32 HOG3       -4.2922   -6.7449    2.6479 H         1 ACP         0.4199
     33 H3B1       -0.8195   -9.3917    1.7682 H         1 ACP         0.0672
     34 H3B2       -1.6221   -9.1571    3.3236 H         1 ACP         0.0672
     35 H5'1       -1.2472   -4.8069    1.8308 H         1 ACP         0.0277
     36 H5'2       -1.5578   -3.2634    2.6671 H         1 ACP         0.0277
     37 H4'         0.8886   -3.6447    0.8779 H         1 ACP         0.1249
     38 H3'        -0.7373   -1.2359    1.9870 H         1 ACP         0.0564
     39 HO3'        1.3408   -0.4870    2.3219 H         1 ACP         0.4511
     40 H2'        -0.0384   -0.0310    0.0096 H         1 ACP         0.0716
     41 HO2'        2.1463   -0.7958    0.0370 H         1 ACP         0.4454
     42 H1'        -0.4769   -2.1002   -1.8093 H         1 ACP         0.1310
     43 H8         -3.0031   -2.1011    0.9891 H         1 ACP         0.3565
     44 HN61       -6.4144    1.6837   -2.3586 H         1 ACP         0.4414
     45 HN62       -6.2940    0.6861   -0.9341 H         1 ACP         0.4414
     46 H2         -2.3243    1.1986   -4.4449 H         1 ACP         0.0676
     47 H47        -5.0436   -0.7722    0.3425 H         1 ACP         0.5052
@<TRIPOS>BOND
     1    1    2 2
     2    1    3 1
     3    1    4 1
     4    1    8 1
     5    4   32 1
     6    5    6 2
     7    5    7 1
     8    5    8 1
     9    5   12 1
    10    8   33 1
    11    8   34 1
    12    9   10 2
    13    9   11 1
    14    9   12 1
    15    9   13 1
    16   13   14 1
    17   14   15 1
    18   14   35 1
    19   14   36 1
    20   15   16 1
    21   15   17 1
    22   15   37 1
    23   16   21 1
    24   17   18 1
    25   17   19 1
    26   17   38 1
    27   18   39 1
    28   19   20 1
    29   19   21 1
    30   19   40 1
    31   20   41 1
    32   21   22 1
    33   21   42 1
    34   22   23 ar
    35   22   31 ar
    36   23   24 ar
    37   23   43 1
    38   24   25 ar
    39   24   47 1
    40   25   26 ar
    41   25   31 ar
    42   26   27 1
    43   26   28 ar
    44   27   44 1
    45   27   45 1
    46   28   29 ar
    47   29   30 ar
    48   29   46 1
    49   30   31 ar
@<TRIPOS>SUBSTRUCTURE
     1 ACP         1 GROUP 0 A     ****
@<TRIPOS>MOLECULE
[[5-(6-amino-7,8-dihydropurin-8-ylium-9-yl)-3,4-dihydroxy-tetrahydrofuran-2-yl]methoxy-oxido-phosphoryl]oxy-[[hydroxy(oxido)phosphoryl]methyl]phosphinate
   47    49     1     0     0
SMALL
USER_CHARGES

@<TRIPOS>ATOM
      1 PG         -3.8578   -3.6429    5.9280 P.3       1 ACP         1.3755
      2 O1G        -5.1202   -2.8279    6.0858 O.co2     1 ACP        -0.8970
      3 O2G        -2.7089   -3.1848    5.0594 O.co2     1 ACP        -0.8970
      4 O3G        -3.2907   -4.0541    7.4008 O.3       1 ACP        -0.7959
      5 PB         -3.1345   -6.6798    5.0170 P.3       1 ACP         1.5194
      6 O1B        -3.9189   -7.8901    4.5669 O.co2     1 ACP        -0.8958
      7 O2B        -2.1833   -6.7286    6.1905 O.co2     1 ACP        -0.8958
      8 C3B        -4.3487   -5.3274    5.3503 C.3       1 ACP        -0.5612
      9 PA         -1.0048   -6.4109    2.9679 P.3       1 ACP         1.6019
     10 O1A        -1.2176   -7.7423    2.2809 O.co2     1 ACP        -0.9040
     11 O2A         0.1532   -6.2121    3.9218 O.co2     1 ACP        -0.9040
     12 O3A        -2.3855   -6.0011    3.7378 O.3       1 ACP        -0.8156
     13 O5'        -0.9728   -5.2427    1.8237 O.3       1 ACP        -0.5465
     14 C5'        -0.7840   -3.8935    2.2172 C.3       1 ACP         0.2108
     15 C4'        -0.0724   -3.1466    1.1027 C.3       1 ACP         0.0552
     16 O4'        -0.8674   -3.1929   -0.0945 O.3       1 ACP        -0.3428
     17 C3'         0.1338   -1.6715    1.4027 C.3       1 ACP         0.0750
     18 O3'         1.2893   -1.4445    2.1808 O.3       1 ACP        -0.6066
     19 C2'         0.2158   -1.0724    0.0128 C.3       1 ACP         0.1185
     20 O2'         1.5141   -1.2448   -0.5513 O.3       1 ACP        -0.5858
     21 C1'        -0.7897   -1.9176   -0.7583 C.3       1 ACP         0.3826
     22 N9         -2.1040   -1.3333   -0.7704 N.pl3     1 ACP        -0.5729
     23 C8         -3.0822   -1.4850    0.1102 C.ar      1 ACP         0.3288
     24 N7         -4.1844   -0.7999   -0.1888 N.pl3     1 ACP        -0.5338
     25 C5         -3.8875   -0.1651   -1.3445 C.ar      1 ACP        -0.2581
     26 C6         -4.5941    0.6799   -2.1486 C.ar      1 ACP         0.7413
     27 N6         -5.9138    1.0274   -1.7939 N.pl3     1 ACP        -0.9512
     28 N1         -4.0421    1.1824   -3.2748 N.ar      1 ACP        -0.7699
     29 C2         -2.7637    0.7937   -3.5405 C.ar      1 ACP         0.6898
     30 N3         -1.9788   -0.0343   -2.8139 N.ar      1 ACP        -0.6800
     31 C4         -2.5915   -0.4902   -1.7174 C.ar      1 ACP         0.6129
     32 HOG3       -3.0506   -3.3377    8.0264 H         1 ACP         0.4199
     33 H3B1       -4.9101   -5.1777    4.4214 H         1 ACP         0.0672
     34 H3B2       -5.0480   -5.7226    6.0955 H         1 ACP         0.0672
     35 H5'1       -1.7614   -3.4427    2.4167 H         1 ACP         0.0277
     36 H5'2       -0.1870   -3.8723    3.1344 H         1 ACP         0.0277
     37 H4'         0.8886   -3.6447    0.8779 H         1 ACP         0.1249
     38 H3'        -0.7373   -1.2359    1.9870 H         1 ACP         0.0564
     39 HO3'        1.3408   -0.4870    2.3219 H         1 ACP         0.4511
     40 H2'        -0.0384   -0.0310    0.0096 H         1 ACP         0.0716
     41 HO2'        1.4998   -0.8412   -1.4369 H         1 ACP         0.4454
     42 H1'        -0.4769   -2.1002   -1.8093 H         1 ACP         0.1310
     43 H8         -3.0031   -2.1011    0.9891 H         1 ACP         0.3565
     44 HN61       -6.3271    0.6117   -0.9836 H         1 ACP         0.4414
     45 HN62       -6.4471    1.6092   -2.4083 H         1 ACP         0.4414
     46 H2         -2.3243    1.1986   -4.4449 H         1 ACP         0.0676
     47 H47        -5.0436   -0.7722    0.3425 H         1 ACP         0.5052
@<TRIPOS>BOND
     1    1    2 2
     2    1    3 1
     3    1    4 1
     4    1    8 1
     5    4   32 1
     6    5    6 2
     7    5    7 1
     8    5    8 1
     9    5   12 1
    10    8   33 1
    11    8   34 1
    12    9   10 2
    13    9   11 1
    14    9   12 1
    15    9   13 1
    16   13   14 1
    17   14   15 1
    18   14   35 1
    19   14   36 1
    20   15   16 1
    21   15   17 1
    22   15   37 1
    23   16   21 1
    24   17   18 1
    25   17   19 1
    26   17   38 1
    27   18   39 1
    28   19   20 1
    29   19   21 1
    30   19   40 1
    31   20   41 1
    32   21   22 1
    33   21   42 1
    34   22   23 ar
    35   22   31 ar
    36   23   24 ar
    37   23   43 1
    38   24   25 ar
    39   24   47 1
    40   25   26 ar
    41   25   31 ar
    42   26   27 1
    43   26   28 ar
    44   27   44 1
    45   27   45 1
    46   28   29 ar
    47   29   30 ar
    48   29   46 1
    49   30   31 ar
@<TRIPOS>SUBSTRUCTURE
     1 ACP         1 GROUP 0 A     ****
@<TRIPOS>MOLECULE
[[5-(6-amino-7,8-dihydropurin-8-ylium-9-yl)-3,4-dihydroxy-tetrahydrofuran-2-yl]methoxy-oxido-phosphoryl]oxy-[[hydroxy(oxido)phosphoryl]methyl]phosphinate
   47    49     1     0     0
SMALL
USER_CHARGES

@<TRIPOS>ATOM
      1 PG          2.0778    1.3109   -6.2409 P.3       1 ACP         1.3755
      2 O1G         3.0272    2.0854   -5.3567 O.co2     1 ACP        -0.8970
      3 O2G         0.6574    1.0075   -5.8230 O.co2     1 ACP        -0.8970
      4 O3G         2.0731    1.9651   -7.7348 O.3       1 ACP        -0.7959
      5 PB          3.3936   -1.5362   -5.3818 P.3       1 ACP         1.5194
      6 O1B         4.3914   -0.8627   -4.4688 O.co2     1 ACP        -0.8958
      7 O2B         3.7091   -2.8235   -6.1081 O.co2     1 ACP        -0.8958
      8 C3B         2.8865   -0.2973   -6.6554 C.3       1 ACP        -0.5612
      9 PA          1.5537   -2.4539   -3.2418 P.3       1 ACP         1.6019
     10 O1A         2.0300   -3.8868   -3.3414 O.co2     1 ACP        -0.9040
     11 O2A         0.1072   -2.1427   -2.9238 O.co2     1 ACP        -0.9040
     12 O3A         1.9587   -1.6787   -4.6209 O.3       1 ACP        -0.8156
     13 O5'         2.5237   -1.6631   -2.1889 O.3       1 ACP        -0.5465
     14 C5'         2.2816   -0.2918   -1.9206 C.3       1 ACP         0.2108
     15 C4'         2.7248    0.0226   -0.4980 C.3       1 ACP         0.0552
     16 O4'         2.4697    1.4219   -0.2462 O.3       1 ACP        -0.3428
     17 C3'         1.9404   -0.7419    0.5596 C.3       1 ACP         0.0750
     18 O3'         2.7418   -0.8086    1.7389 O.3       1 ACP        -0.6066
     19 C2'         0.7477    0.1630    0.7858 C.3       1 ACP         0.1185
     20 O2'         0.1373   -0.0577    2.0407 O.3       1 ACP        -0.5858
     21 C1'         1.3733    1.5427    0.6747 C.3       1 ACP         0.3826
     22 N9          0.4520    2.5240    0.1767 N.pl3     1 ACP        -0.5729
     23 C8          0.5305    3.2394   -0.9358 C.ar      1 ACP         0.3288
     24 N7         -0.4966    4.0680   -1.1145 N.pl3     1 ACP        -0.5338
     25 C5         -1.2879    3.8664   -0.0375 C.ar      1 ACP        -0.2581
     26 C6         -2.4754    4.4084    0.3577 C.ar      1 ACP         0.7413
     27 N6         -3.0892    5.3882   -0.4495 N.pl3     1 ACP        -0.9512
     28 N1         -3.0632    4.0158    1.5092 N.ar      1 ACP        -0.7699
     29 C2         -2.4008    3.0654    2.2262 C.ar      1 ACP         0.6898
     30 N3         -1.2259    2.4663    1.9260 N.ar      1 ACP        -0.6800
     31 C4         -0.7062    2.9047    0.7757 C.ar      1 ACP         0.6129
     32 HOG3        1.8010    2.9023   -7.8342 H         1 ACP         0.4199
     33 H3B1        3.7903   -0.0453   -7.2212 H         1 ACP         0.0672
     34 H3B2        2.2086   -0.8219   -7.3379 H         1 ACP         0.0672
     35 H5'1        2.8429    0.3140   -2.6391 H         1 ACP         0.0277
     36 H5'2        1.2125   -0.0906   -2.0420 H         1 ACP         0.0277
     37 H4'         3.8050   -0.1388   -0.4008 H         1 ACP         0.1249
     38 H3'         1.6784   -1.7629    0.2714 H         1 ACP         0.0564
     39 HO3'        3.5554   -1.2733    1.4914 H         1 ACP         0.4511
     40 H2'        -0.0011    0.0027    0.0003 H         1 ACP         0.0716
     41 HO2'       -0.1563   -0.9855    2.0596 H         1 ACP         0.4454
     42 H1'         1.7826    1.9024    1.6451 H         1 ACP         0.1310
     43 H8          1.3437    3.1645   -1.6367 H         1 ACP         0.3565
     44 HN61       -2.6210    5.7042   -1.2748 H         1 ACP         0.4414
     45 HN62       -3.9356    5.8187   -0.1356 H         1 ACP         0.4414
     46 H2         -2.8752    2.7532    3.1495 H         1 ACP         0.0676
     47 H47        -0.6372    4.7004   -1.8900 H         1 ACP         0.5052
@<TRIPOS>BOND
     1    1    2 2
     2    1    3 1
     3    1    4 1
     4    1    8 1
     5    4   32 1
     6    5    6 2
     7    5    7 1
     8    5    8 1
     9    5   12 1
    10    8   33 1
    11    8   34 1
    12    9   10 2
    13    9   11 1
    14    9   12 1
    15    9   13 1
    16   13   14 1
    17   14   15 1
    18   14   35 1
    19   14   36 1
    20   15   16 1
    21   15   17 1
    22   15   37 1
    23   16   21 1
    24   17   18 1
    25   17   19 1
    26   17   38 1
    27   18   39 1
    28   19   20 1
    29   19   21 1
    30   19   40 1
    31   20   41 1
    32   21   22 1
    33   21   42 1
    34   22   23 ar
    35   22   31 ar
    36   23   24 ar
    37   23   43 1
    38   24   25 ar
    39   24   47 1
    40   25   26 ar
    41   25   31 ar
    42   26   27 1
    43   26   28 ar
    44   27   44 1
    45   27   45 1
    46   28   29 ar
    47   29   30 ar
    48   29   46 1
    49   30   31 ar
@<TRIPOS>SUBSTRUCTURE
     1 ACP         1 GROUP 0 A     ****
@<TRIPOS>MOLECULE
[[5-(6-amino-7,8-dihydropurin-8-ylium-9-yl)-3,4-dihydroxy-tetrahydrofuran-2-yl]methoxy-oxido-phosphoryl]oxy-[[hydroxy(oxido)phosphoryl]methyl]phosphinate
   47    49     1     0     0
SMALL
USER_CHARGES

@<TRIPOS>ATOM
      1 PG          4.3280    1.5837   -5.6043 P.3       1 ACP         1.3755
      2 O1G         2.8306    1.3831   -5.6289 O.co2     1 ACP        -0.8970
      3 O2G         5.0311    2.5061   -6.5734 O.co2     1 ACP        -0.8970
      4 O3G         4.8028    1.9341   -4.0840 O.3       1 ACP        -0.7959
      5 PB          4.8472   -1.4445   -4.5386 P.3       1 ACP         1.5194
      6 O1B         5.3187   -0.9488   -3.1915 O.co2     1 ACP        -0.8958
      7 O2B         5.3827   -2.7133   -5.1613 O.co2     1 ACP        -0.8958
      8 C3B         5.1171   -0.0797   -5.7546 C.3       1 ACP        -0.5612
      9 PA          2.1362   -2.2698   -3.6575 P.3       1 ACP         1.6019
     10 O1A         2.4953   -3.7397   -3.6734 O.co2     1 ACP        -0.9040
     11 O2A         0.7453   -1.8118   -4.0395 O.co2     1 ACP        -0.9040
     12 O3A         3.2175   -1.4646   -4.5792 O.3       1 ACP        -0.8156
     13 O5'         2.5237   -1.6631   -2.1889 O.3       1 ACP        -0.5465
     14 C5'         2.2816   -0.2918   -1.9206 C.3       1 ACP         0.2108
     15 C4'         2.7248    0.0226   -0.4980 C.3       1 ACP         0.0552
     16 O4'         2.4697    1.4219   -0.2462 O.3       1 ACP        -0.3428
     17 C3'         1.9404   -0.7419    0.5596 C.3       1 ACP         0.0750
     18 O3'         2.7418   -0.8086    1.7389 O.3       1 ACP        -0.6066
     19 C2'         0.7477    0.1630    0.7858 C.3       1 ACP         0.1185
     20 O2'         0.1373   -0.0577    2.0407 O.3       1 ACP        -0.5858
     21 C1'         1.3733    1.5427    0.6747 C.3       1 ACP         0.3826
     22 N9          0.4520    2.5240    0.1767 N.pl3     1 ACP        -0.5729
     23 C8         -0.8602    2.5861    0.3496 C.ar      1 ACP         0.3288
     24 N7         -1.4308    3.6326   -0.2443 N.pl3     1 ACP        -0.5338
     25 C5         -0.4080    4.2856   -0.8394 C.ar      1 ACP        -0.2581
     26 C6         -0.3432    5.4196   -1.5943 C.ar      1 ACP         0.7413
     27 N6         -1.5276    6.1333   -1.8702 N.pl3     1 ACP        -0.9512
     28 N1          0.8395    5.8603   -2.0764 N.ar      1 ACP        -0.7699
     29 C2          1.9319    5.1095   -1.7617 C.ar      1 ACP         0.6898
     30 N3          1.9773    3.9761   -1.0249 N.ar      1 ACP        -0.6800
     31 C4          0.7724    3.6031   -0.5836 C.ar      1 ACP         0.6129
     32 HOG3        4.4350    2.7342   -3.6517 H         1 ACP         0.4199
     33 H3B1        6.1976    0.0991   -5.7865 H         1 ACP         0.0672
     34 H3B2        4.8223   -0.4791   -6.7313 H         1 ACP         0.0672
     35 H5'1        2.8429    0.3140   -2.6391 H         1 ACP         0.0277
     36 H5'2        1.2125   -0.0906   -2.0420 H         1 ACP         0.0277
     37 H4'         3.8050   -0.1388   -0.4008 H         1 ACP         0.1249
     38 H3'         1.6784   -1.7629    0.2714 H         1 ACP         0.0564
     39 HO3'        2.2232   -1.2979    2.3953 H         1 ACP         0.4511
     40 H2'        -0.0011    0.0027    0.0003 H         1 ACP         0.0716
     41 HO2'       -0.1563   -0.9855    2.0596 H         1 ACP         0.4454
     42 H1'         1.7826    1.9024    1.6451 H         1 ACP         0.1310
     43 H8         -1.4217    1.8638    0.9164 H         1 ACP         0.3565
     44 HN61       -2.4023    5.7711   -1.5477 H         1 ACP         0.4414
     45 HN62       -1.4857    6.9379   -2.4627 H         1 ACP         0.4414
     46 H2          2.8789    5.4660   -2.1503 H         1 ACP         0.0676
     47 H47        -2.4129    3.8706   -0.2402 H         1 ACP         0.5052
@<TRIPOS>BOND
     1    1    2 2
     2    1    3 1
     3    1    4 1
     4    1    8 1
     5    4   32 1
     6    5    6 2
     7    5    7 1
     8    5    8 1
     9    5   12 1
    10    8   33 1
    11    8   34 1
    12    9   10 2
    13    9   11 1
    14    9   12 1
    15    9   13 1
    16   13   14 1
    17   14   15 1
    18   14   35 1
    19   14   36 1
    20   15   16 1
    21   15   17 1
    22   15   37 1
    23   16   21 1
    24   17   18 1
    25   17   19 1
    26   17   38 1
    27   18   39 1
    28   19   20 1
    29   19   21 1
    30   19   40 1
    31   20   41 1
    32   21   22 1
    33   21   42 1
    34   22   23 ar
    35   22   31 ar
    36   23   24 ar
    37   23   43 1
    38   24   25 ar
    39   24   47 1
    40   25   26 ar
    41   25   31 ar
    42   26   27 1
    43   26   28 ar
    44   27   44 1
    45   27   45 1
    46   28   29 ar
    47   29   30 ar
    48   29   46 1
    49   30   31 ar
@<TRIPOS>SUBSTRUCTURE
     1 ACP         1 GROUP 0 A     ****
@<TRIPOS>MOLECULE
[[5-(6-amino-7,8-dihydropurin-8-ylium-9-yl)-3,4-dihydroxy-tetrahydrofuran-2-yl]methoxy-oxido-phosphoryl]oxy-[[hydroxy(oxido)phosphoryl]methyl]phosphinate
   47    49     1     0     0
SMALL
USER_CHARGES

@<TRIPOS>ATOM
      1 PG         -2.2480   -1.0532   -3.3984 P.3       1 ACP         1.3755
      2 O1G        -3.5509   -0.8830   -2.6526 O.co2     1 ACP        -0.8970
      3 O2G        -0.9558   -1.3919   -2.6915 O.co2     1 ACP        -0.8970
      4 O3G        -2.4675   -2.0819   -4.6447 O.3       1 ACP        -0.7959
      5 PB         -0.4762    0.7445   -5.4488 P.3       1 ACP         1.5194
      6 O1B        -0.6008    2.1162   -6.0697 O.co2     1 ACP        -0.8958
      7 O2B        -0.3071   -0.5039   -6.2838 O.co2     1 ACP        -0.8958
      8 C3B        -1.9561    0.4890   -4.3725 C.3       1 ACP        -0.5612
      9 PA          2.2847    0.7049   -4.3612 P.3       1 ACP         1.6019
     10 O1A         2.7803    1.9715   -5.0245 O.co2     1 ACP        -0.9040
     11 O2A         2.6816   -0.6530   -4.8988 O.co2     1 ACP        -0.9040
     12 O3A         0.6552    0.7712   -4.2752 O.3       1 ACP        -0.8156
     13 O5'         2.6459    0.7852   -2.7681 O.3       1 ACP        -0.5465
     14 C5'         2.2816   -0.2918   -1.9206 C.3       1 ACP         0.2108
     15 C4'         2.7248    0.0226   -0.4980 C.3       1 ACP         0.0552
     16 O4'         2.4697    1.4219   -0.2462 O.3       1 ACP        -0.3428
     17 C3'         1.9404   -0.7419    0.5596 C.3       1 ACP         0.0750
     18 O3'         2.7418   -0.8086    1.7389 O.3       1 ACP        -0.6066
     19 C2'         0.7477    0.1630    0.7858 C.3       1 ACP         0.1185
     20 O2'         0.1373   -0.0577    2.0407 O.3       1 ACP        -0.5858
     21 C1'         1.3733    1.5427    0.6747 C.3       1 ACP         0.3826
     22 N9          0.4520    2.5240    0.1767 N.pl3     1 ACP        -0.5729
     23 C8         -0.2172    2.5216   -0.9668 C.ar      1 ACP         0.3288
     24 N7         -1.0011    3.5855   -1.1321 N.pl3     1 ACP        -0.5338
     25 C5         -0.8184    4.3200   -0.0123 C.ar      1 ACP        -0.2581
     26 C6         -1.3349    5.5079    0.4144 C.ar      1 ACP         0.7413
     27 N6         -2.2567    6.1930   -0.4036 N.pl3     1 ACP        -0.9512
     28 N1         -0.9716    6.0291    1.6069 N.ar      1 ACP        -0.7699
     29 C2         -0.0765    5.3009    2.3312 C.ar      1 ACP         0.6898
     30 N3          0.4933    4.1191    2.0023 N.ar      1 ACP        -0.6800
     31 C4          0.0865    3.6675    0.8123 C.ar      1 ACP         0.6129
     32 HOG3       -2.7667   -2.9956   -4.4500 H         1 ACP         0.4199
     33 H3B1       -1.9590    1.3106   -3.6476 H         1 ACP         0.0672
     34 H3B2       -2.8302    0.6206   -5.0199 H         1 ACP         0.0672
     35 H5'1        1.1958   -0.4240   -1.9628 H         1 ACP         0.0277
     36 H5'2        2.7668   -1.2049   -2.2799 H         1 ACP         0.0277
     37 H4'         3.8050   -0.1388   -0.4008 H         1 ACP         0.1249
     38 H3'         1.6784   -1.7629    0.2714 H         1 ACP         0.0564
     39 HO3'        2.2232   -1.2979    2.3953 H         1 ACP         0.4511
     40 H2'        -0.0011    0.0027    0.0003 H         1 ACP         0.0716
     41 HO2'       -0.6141    0.5574    2.1082 H         1 ACP         0.4454
     42 H1'         1.7826    1.9024    1.6451 H         1 ACP         0.1310
     43 H8         -0.1423    1.7373   -1.6999 H         1 ACP         0.3565
     44 HN61       -2.4811    5.8206   -1.3042 H         1 ACP         0.4414
     45 HN62       -2.5986    7.0863   -0.1113 H         1 ACP         0.4414
     46 H2          0.2128    5.7222    3.2871 H         1 ACP         0.0676
     47 H47        -1.5947    3.7835   -1.9255 H         1 ACP         0.5052
@<TRIPOS>BOND
     1    1    2 2
     2    1    3 1
     3    1    4 1
     4    1    8 1
     5    4   32 1
     6    5    6 2
     7    5    7 1
     8    5    8 1
     9    5   12 1
    10    8   33 1
    11    8   34 1
    12    9   10 2
    13    9   11 1
    14    9   12 1
    15    9   13 1
    16   13   14 1
    17   14   15 1
    18   14   35 1
    19   14   36 1
    20   15   16 1
    21   15   17 1
    22   15   37 1
    23   16   21 1
    24   17   18 1
    25   17   19 1
    26   17   38 1
    27   18   39 1
    28   19   20 1
    29   19   21 1
    30   19   40 1
    31   20   41 1
    32   21   22 1
    33   21   42 1
    34   22   23 ar
    35   22   31 ar
    36   23   24 ar
    37   23   43 1
    38   24   25 ar
    39   24   47 1
    40   25   26 ar
    41   25   31 ar
    42   26   27 1
    43   26   28 ar
    44   27   44 1
    45   27   45 1
    46   28   29 ar
    47   29   30 ar
    48   29   46 1
    49   30   31 ar
@<TRIPOS>SUBSTRUCTURE
     1 ACP         1 GROUP 0 A     ****
@<TRIPOS>MOLECULE
[[5-(6-amino-7,8-dihydropurin-8-ylium-9-yl)-3,4-dihydroxy-tetrahydrofuran-2-yl]methoxy-oxido-phosphoryl]oxy-[[hydroxy(oxido)phosphoryl]methyl]phosphinate
   47    49     1     0     0
SMALL
USER_CHARGES

@<TRIPOS>ATOM
      1 PG          2.1194   -2.1363   -7.4176 P.3       1 ACP         1.3755
      2 O1G         1.3735   -1.3877   -8.4974 O.co2     1 ACP        -0.8970
      3 O2G         1.4435   -2.6000   -6.1478 O.co2     1 ACP        -0.8970
      4 O3G         2.9300   -3.3845   -8.0847 O.3       1 ACP        -0.7959
      5 PB          4.7841   -1.6168   -5.6274 P.3       1 ACP         1.5194
      6 O1B         5.8152   -0.5181   -5.5158 O.co2     1 ACP        -0.8958
      7 O2B         5.1653   -3.0521   -5.9083 O.co2     1 ACP        -0.8958
      8 C3B         3.5718   -1.1066   -6.9251 C.3       1 ACP        -0.5612
      9 PA          3.9654   -2.1111   -2.8181 P.3       1 ACP         1.6019
     10 O1A         5.0498   -1.2970   -2.1465 O.co2     1 ACP        -0.9040
     11 O2A         4.0486   -3.6217   -2.8585 O.co2     1 ACP        -0.9040
     12 O3A         3.7791   -1.5622   -4.3449 O.3       1 ACP        -0.8156
     13 O5'         2.5237   -1.6631   -2.1889 O.3       1 ACP        -0.5465
     14 C5'         2.2816   -0.2918   -1.9206 C.3       1 ACP         0.2108
     15 C4'         2.7248    0.0226   -0.4980 C.3       1 ACP         0.0552
     16 O4'         2.4697    1.4219   -0.2462 O.3       1 ACP        -0.3428
     17 C3'         1.9404   -0.7419    0.5596 C.3       1 ACP         0.0750
     18 O3'         2.7418   -0.8086    1.7389 O.3       1 ACP        -0.6066
     19 C2'         0.7477    0.1630    0.7858 C.3       1 ACP         0.1185
     20 O2'         0.1373   -0.0577    2.0407 O.3       1 ACP        -0.5858
     21 C1'         1.3733    1.5427    0.6747 C.3       1 ACP         0.3826
     22 N9          0.4520    2.5240    0.1767 N.pl3     1 ACP        -0.5729
     23 C8          0.1928    2.8484   -1.0815 C.ar      1 ACP         0.3288
     24 N7         -0.7248    3.8048   -1.2110 N.pl3     1 ACP        -0.5338
     25 C5         -1.0765    4.1129    0.0571 C.ar      1 ACP        -0.2581
     26 C6         -1.9614    5.0063    0.5851 C.ar      1 ACP         0.7413
     27 N6         -2.7145    5.8254   -0.2810 N.pl3     1 ACP        -0.9512
     28 N1         -2.1199    5.1113    1.9228 N.ar      1 ACP        -0.7699
     29 C2         -1.3522    4.2822    2.6839 C.ar      1 ACP         0.6898
     30 N3         -0.4501    3.3660    2.2638 N.ar      1 ACP        -0.6800
     31 C4         -0.3487    3.3198    0.9322 C.ar      1 ACP         0.6129
     32 HOG3        2.4189   -4.0733   -8.5606 H         1 ACP         0.4199
     33 H3B1        3.1646   -0.1403   -6.6075 H         1 ACP         0.0672
     34 H3B2        4.1555   -0.9325   -7.8359 H         1 ACP         0.0672
     35 H5'1        2.8429    0.3140   -2.6391 H         1 ACP         0.0277
     36 H5'2        1.2125   -0.0906   -2.0420 H         1 ACP         0.0277
     37 H4'         3.8050   -0.1388   -0.4008 H         1 ACP         0.1249
     38 H3'         1.6784   -1.7629    0.2714 H         1 ACP         0.0564
     39 HO3'        3.5554   -1.2733    1.4914 H         1 ACP         0.4511
     40 H2'        -0.0011    0.0027    0.0003 H         1 ACP         0.0716
     41 HO2'       -0.1563   -0.9855    2.0596 H         1 ACP         0.4454
     42 H1'         1.7826    1.9024    1.6451 H         1 ACP         0.1310
     43 H8          0.6728    2.3873   -1.9272 H         1 ACP         0.3565
     44 HN61       -2.5537    5.7714   -1.2667 H         1 ACP         0.4414
     45 HN62       -3.3283    6.5126    0.1080 H         1 ACP         0.4414
     46 H2         -1.4818    4.3694    3.7565 H         1 ACP         0.0676
     47 H47        -1.0701    4.2005   -2.0743 H         1 ACP         0.5052
@<TRIPOS>BOND
     1    1    2 2
     2    1    3 1
     3    1    4 1
     4    1    8 1
     5    4   32 1
     6    5    6 2
     7    5    7 1
     8    5    8 1
     9    5   12 1
    10    8   33 1
    11    8   34 1
    12    9   10 2
    13    9   11 1
    14    9   12 1
    15    9   13 1
    16   13   14 1
    17   14   15 1
    18   14   35 1
    19   14   36 1
    20   15   16 1
    21   15   17 1
    22   15   37 1
    23   16   21 1
    24   17   18 1
    25   17   19 1
    26   17   38 1
    27   18   39 1
    28   19   20 1
    29   19   21 1
    30   19   40 1
    31   20   41 1
    32   21   22 1
    33   21   42 1
    34   22   23 ar
    35   22   31 ar
    36   23   24 ar
    37   23   43 1
    38   24   25 ar
    39   24   47 1
    40   25   26 ar
    41   25   31 ar
    42   26   27 1
    43   26   28 ar
    44   27   44 1
    45   27   45 1
    46   28   29 ar
    47   29   30 ar
    48   29   46 1
    49   30   31 ar
@<TRIPOS>SUBSTRUCTURE
     1 ACP         1 GROUP 0 A     ****
@<TRIPOS>MOLECULE
[[5-(6-amino-7,8-dihydropurin-8-ylium-9-yl)-3,4-dihydroxy-tetrahydrofuran-2-yl]methoxy-oxido-phosphoryl]oxy-[[hydroxy(oxido)phosphoryl]methyl]phosphinate
   47    49     1     0     0
SMALL
USER_CHARGES

@<TRIPOS>ATOM
      1 PG          3.8223   -4.5880   -4.6489 P.3       1 ACP         1.3755
      2 O1G         3.9653   -5.7610   -5.5904 O.co2     1 ACP        -0.8970
      3 O2G         2.4743   -4.0105   -4.2835 O.co2     1 ACP        -0.8970
      4 O3G         4.6720   -4.8791   -3.2876 O.3       1 ACP        -0.7959
      5 PB          4.9905   -1.5569   -4.4967 P.3       1 ACP         1.5194
      6 O1B         5.9144   -0.7099   -5.3403 O.co2     1 ACP        -0.8958
      7 O2B         5.2443   -1.8053   -3.0276 O.co2     1 ACP        -0.8958
      8 C3B         4.8515   -3.2069   -5.3165 C.3       1 ACP        -0.5612
      9 PA          2.7389    0.3751   -4.4298 P.3       1 ACP         1.6019
     10 O1A         1.2481    0.2227   -4.6393 O.co2     1 ACP        -0.9040
     11 O2A         3.5164    1.4419   -5.1701 O.co2     1 ACP        -0.9040
     12 O3A         3.4492   -1.0690   -4.7073 O.3       1 ACP        -0.8156
     13 O5'         3.0198    0.5138   -2.8245 O.3       1 ACP        -0.5465
     14 C5'         2.2816   -0.2918   -1.9206 C.3       1 ACP         0.2108
     15 C4'         2.7248    0.0226   -0.4980 C.3       1 ACP         0.0552
     16 O4'         2.4697    1.4219   -0.2462 O.3       1 ACP        -0.3428
     17 C3'         1.9404   -0.7419    0.5596 C.3       1 ACP         0.0750
     18 O3'         2.7418   -0.8086    1.7389 O.3       1 ACP        -0.6066
     19 C2'         0.7477    0.1630    0.7858 C.3       1 ACP         0.1185
     20 O2'         0.1373   -0.0577    2.0407 O.3       1 ACP        -0.5858
     21 C1'         1.3733    1.5427    0.6747 C.3       1 ACP         0.3826
     22 N9          0.4520    2.5240    0.1767 N.pl3     1 ACP        -0.5729
     23 C8         -0.8602    2.5861    0.3496 C.ar      1 ACP         0.3288
     24 N7         -1.4308    3.6326   -0.2443 N.pl3     1 ACP        -0.5338
     25 C5         -0.4080    4.2856   -0.8394 C.ar      1 ACP        -0.2581
     26 C6         -0.3432    5.4196   -1.5943 C.ar      1 ACP         0.7413
     27 N6         -1.5276    6.1333   -1.8702 N.pl3     1 ACP        -0.9512
     28 N1          0.8395    5.8603   -2.0764 N.ar      1 ACP        -0.7699
     29 C2          1.9319    5.1095   -1.7617 C.ar      1 ACP         0.6898
     30 N3          1.9773    3.9761   -1.0249 N.ar      1 ACP        -0.6800
     31 C4          0.7724    3.6031   -0.5836 C.ar      1 ACP         0.6129
     32 HOG3        4.4370   -5.6641   -2.7484 H         1 ACP         0.4199
     33 H3B1        4.4855   -3.0196   -6.3322 H         1 ACP         0.0672
     34 H3B2        5.8738   -3.5915   -5.4026 H         1 ACP         0.0672
     35 H5'1        1.2153   -0.0781   -2.0454 H         1 ACP         0.0277
     36 H5'2        2.4645   -1.3454   -2.1547 H         1 ACP         0.0277
     37 H4'         3.8050   -0.1388   -0.4008 H         1 ACP         0.1249
     38 H3'         1.6784   -1.7629    0.2714 H         1 ACP         0.0564
     39 HO3'        2.2232   -1.2979    2.3953 H         1 ACP         0.4511
     40 H2'        -0.0011    0.0027    0.0003 H         1 ACP         0.0716
     41 HO2'       -0.1563   -0.9855    2.0596 H         1 ACP         0.4454
     42 H1'         1.7826    1.9024    1.6451 H         1 ACP         0.1310
     43 H8         -1.4217    1.8638    0.9164 H         1 ACP         0.3565
     44 HN61       -2.4023    5.7711   -1.5477 H         1 ACP         0.4414
     45 HN62       -1.4857    6.9379   -2.4627 H         1 ACP         0.4414
     46 H2          2.8789    5.4660   -2.1503 H         1 ACP         0.0676
     47 H47        -2.4129    3.8706   -0.2402 H         1 ACP         0.5052
@<TRIPOS>BOND
     1    1    2 2
     2    1    3 1
     3    1    4 1
     4    1    8 1
     5    4   32 1
     6    5    6 2
     7    5    7 1
     8    5    8 1
     9    5   12 1
    10    8   33 1
    11    8   34 1
    12    9   10 2
    13    9   11 1
    14    9   12 1
    15    9   13 1
    16   13   14 1
    17   14   15 1
    18   14   35 1
    19   14   36 1
    20   15   16 1
    21   15   17 1
    22   15   37 1
    23   16   21 1
    24   17   18 1
    25   17   19 1
    26   17   38 1
    27   18   39 1
    28   19   20 1
    29   19   21 1
    30   19   40 1
    31   20   41 1
    32   21   22 1
    33   21   42 1
    34   22   23 ar
    35   22   31 ar
    36   23   24 ar
    37   23   43 1
    38   24   25 ar
    39   24   47 1
    40   25   26 ar
    41   25   31 ar
    42   26   27 1
    43   26   28 ar
    44   27   44 1
    45   27   45 1
    46   28   29 ar
    47   29   30 ar
    48   29   46 1
    49   30   31 ar
@<TRIPOS>SUBSTRUCTURE
     1 ACP         1 GROUP 0 A     ****
@<TRIPOS>MOLECULE
[[5-(6-amino-7,8-dihydropurin-8-ylium-9-yl)-3,4-dihydroxy-tetrahydrofuran-2-yl]methoxy-oxido-phosphoryl]oxy-[[hydroxy(oxido)phosphoryl]methyl]phosphinate
   47    49     1     0     0
SMALL
USER_CHARGES

@<TRIPOS>ATOM
      1 PG         -0.6161   -8.7006    4.6026 P.3       1 ACP         1.3755
      2 O1G         0.0861   -7.8048    3.6091 O.co2     1 ACP        -0.8970
      3 O2G        -0.9648  -10.1362    4.2837 O.co2     1 ACP        -0.8970
      4 O3G         0.1644   -8.6396    6.0333 O.3       1 ACP        -0.7959
      5 PB         -2.2119   -6.1970    5.9296 P.3       1 ACP         1.5194
      6 O1B        -1.4335   -6.3128    7.2193 O.co2     1 ACP        -0.8958
      7 O2B        -3.6419   -5.7091    5.8942 O.co2     1 ACP        -0.8958
      8 C3B        -2.1767   -7.8540    5.1127 C.3       1 ACP        -0.5612
      9 PA         -0.7235   -3.8665    4.8526 P.3       1 ACP         1.6019
     10 O1A         0.3457   -3.7994    5.9213 O.co2     1 ACP        -0.9040
     11 O2A        -1.8771   -2.8868    4.8538 O.co2     1 ACP        -0.9040
     12 O3A        -1.3317   -5.3818    4.8256 O.3       1 ACP        -0.8156
     13 O5'         0.0099   -3.8403    3.3910 O.3       1 ACP        -0.5465
     14 C5'        -0.7840   -3.8935    2.2172 C.3       1 ACP         0.2108
     15 C4'        -0.0724   -3.1466    1.1027 C.3       1 ACP         0.0552
     16 O4'        -0.8674   -3.1929   -0.0945 O.3       1 ACP        -0.3428
     17 C3'         0.1338   -1.6715    1.4027 C.3       1 ACP         0.0750
     18 O3'         1.2893   -1.4445    2.1808 O.3       1 ACP        -0.6066
     19 C2'         0.2158   -1.0724    0.0128 C.3       1 ACP         0.1185
     20 O2'         1.5141   -1.2448   -0.5513 O.3       1 ACP        -0.5858
     21 C1'        -0.7897   -1.9176   -0.7583 C.3       1 ACP         0.3826
     22 N9         -2.1040   -1.3333   -0.7704 N.pl3     1 ACP        -0.5729
     23 C8         -3.0822   -1.4850    0.1102 C.ar      1 ACP         0.3288
     24 N7         -4.1844   -0.7999   -0.1888 N.pl3     1 ACP        -0.5338
     25 C5         -3.8875   -0.1651   -1.3445 C.ar      1 ACP        -0.2581
     26 C6         -4.5941    0.6799   -2.1486 C.ar      1 ACP         0.7413
     27 N6         -5.9138    1.0274   -1.7939 N.pl3     1 ACP        -0.9512
     28 N1         -4.0421    1.1824   -3.2748 N.ar      1 ACP        -0.7699
     29 C2         -2.7637    0.7937   -3.5405 C.ar      1 ACP         0.6898
     30 N3         -1.9788   -0.0343   -2.8139 N.ar      1 ACP        -0.6800
     31 C4         -2.5915   -0.4902   -1.7174 C.ar      1 ACP         0.6129
     32 HOG3        1.1046   -8.9173    6.0655 H         1 ACP         0.4199
     33 H3B1       -2.6893   -8.5457    5.7904 H         1 ACP         0.0672
     34 H3B2       -2.7924   -7.7624    4.2111 H         1 ACP         0.0672
     35 H5'1       -0.9358   -4.9414    1.9395 H         1 ACP         0.0277
     36 H5'2       -1.7558   -3.4349    2.4258 H         1 ACP         0.0277
     37 H4'         0.8886   -3.6447    0.8779 H         1 ACP         0.1249
     38 H3'        -0.7373   -1.2359    1.9870 H         1 ACP         0.0564
     39 HO3'        1.3408   -0.4870    2.3219 H         1 ACP         0.4511
     40 H2'        -0.0384   -0.0310    0.0096 H         1 ACP         0.0716
     41 HO2'        2.1463   -0.7958    0.0370 H         1 ACP         0.4454
     42 H1'        -0.4769   -2.1002   -1.8093 H         1 ACP         0.1310
     43 H8         -3.0031   -2.1011    0.9891 H         1 ACP         0.3565
     44 HN61       -6.3271    0.6117   -0.9836 H         1 ACP         0.4414
     45 HN62       -6.4471    1.6092   -2.4083 H         1 ACP         0.4414
     46 H2         -2.3243    1.1986   -4.4449 H         1 ACP         0.0676
     47 H47        -5.0436   -0.7722    0.3425 H         1 ACP         0.5052
@<TRIPOS>BOND
     1    1    2 2
     2    1    3 1
     3    1    4 1
     4    1    8 1
     5    4   32 1
     6    5    6 2
     7    5    7 1
     8    5    8 1
     9    5   12 1
    10    8   33 1
    11    8   34 1
    12    9   10 2
    13    9   11 1
    14    9   12 1
    15    9   13 1
    16   13   14 1
    17   14   15 1
    18   14   35 1
    19   14   36 1
    20   15   16 1
    21   15   17 1
    22   15   37 1
    23   16   21 1
    24   17   18 1
    25   17   19 1
    26   17   38 1
    27   18   39 1
    28   19   20 1
    29   19   21 1
    30   19   40 1
    31   20   41 1
    32   21   22 1
    33   21   42 1
    34   22   23 ar
    35   22   31 ar
    36   23   24 ar
    37   23   43 1
    38   24   25 ar
    39   24   47 1
    40   25   26 ar
    41   25   31 ar
    42   26   27 1
    43   26   28 ar
    44   27   44 1
    45   27   45 1
    46   28   29 ar
    47   29   30 ar
    48   29   46 1
    49   30   31 ar
@<TRIPOS>SUBSTRUCTURE
     1 ACP         1 GROUP 0 A     ****
@<TRIPOS>MOLECULE
[[5-(6-amino-7,8-dihydropurin-8-ylium-9-yl)-3,4-dihydroxy-tetrahydrofuran-2-yl]methoxy-oxido-phosphoryl]oxy-[[hydroxy(oxido)phosphoryl]methyl]phosphinate
   47    49     1     0     0
SMALL
USER_CHARGES

@<TRIPOS>ATOM
      1 PG         -0.6751   -1.0893    6.7945 P.3       1 ACP         1.3755
      2 O1G         0.5617   -0.6556    7.5463 O.co2     1 ACP        -0.8970
      3 O2G        -1.9913   -0.3575    6.9227 O.co2     1 ACP        -0.8970
      4 O3G        -0.3121   -1.2750    5.2154 O.3       1 ACP        -0.7959
      5 PB         -2.4020   -3.8311    6.5190 P.3       1 ACP         1.5194
      6 O1B        -3.6745   -3.1381    6.9470 O.co2     1 ACP        -0.8958
      7 O2B        -2.1385   -5.2881    6.8221 O.co2     1 ACP        -0.8958
      8 C3B        -0.9872   -2.8624    7.2077 C.3       1 ACP        -0.5612
      9 PA         -3.0181   -3.8920    3.6167 P.3       1 ACP         1.6019
     10 O1A        -4.2799   -3.0579    3.6615 O.co2     1 ACP        -0.9040
     11 O2A        -3.0933   -5.3964    3.4696 O.co2     1 ACP        -0.9040
     12 O3A        -2.1234   -3.5455    4.9382 O.3       1 ACP        -0.8156
     13 O5'        -2.0403   -3.2809    2.4568 O.3       1 ACP        -0.5465
     14 C5'        -0.7840   -3.8935    2.2172 C.3       1 ACP         0.2108
     15 C4'        -0.0724   -3.1466    1.1027 C.3       1 ACP         0.0552
     16 O4'        -0.8674   -3.1929   -0.0945 O.3       1 ACP        -0.3428
     17 C3'         0.1338   -1.6715    1.4027 C.3       1 ACP         0.0750
     18 O3'         1.2893   -1.4445    2.1808 O.3       1 ACP        -0.6066
     19 C2'         0.2158   -1.0724    0.0128 C.3       1 ACP         0.1185
     20 O2'         1.5141   -1.2448   -0.5513 O.3       1 ACP        -0.5858
     21 C1'        -0.7897   -1.9176   -0.7583 C.3       1 ACP         0.3826
     22 N9         -2.1040   -1.3333   -0.7704 N.pl3     1 ACP        -0.5729
     23 C8         -3.2304   -1.8262   -0.2767 C.ar      1 ACP         0.3288
     24 N7         -4.2847   -1.0309   -0.4481 N.pl3     1 ACP        -0.5338
     25 C5         -3.7951    0.0479   -1.0985 C.ar      1 ACP        -0.2581
     26 C6         -4.3691    1.1983   -1.5536 C.ar      1 ACP         0.7413
     27 N6         -5.7501    1.4047   -1.3573 N.pl3     1 ACP        -0.9512
     28 N1         -3.6289    2.1345   -2.1869 N.ar      1 ACP        -0.7699
     29 C2         -2.3041    1.8525   -2.3333 C.ar      1 ACP         0.6898
     30 N3         -1.6387    0.7492   -1.9218 N.ar      1 ACP        -0.6800
     31 C4         -2.4348   -0.1293   -1.3053 C.ar      1 ACP         0.6129
     32 HOG3        0.0248   -0.4992    4.7185 H         1 ACP         0.4199
     33 H3B1       -1.0811   -2.9076    8.2984 H         1 ACP         0.0672
     34 H3B2       -0.0798   -3.4121    6.9342 H         1 ACP         0.0672
     35 H5'1       -0.1929   -3.8610    3.1379 H         1 ACP         0.0277
     36 H5'2       -0.9476   -4.9382    1.9344 H         1 ACP         0.0277
     37 H4'         0.8886   -3.6447    0.8779 H         1 ACP         0.1249
     38 H3'        -0.7373   -1.2359    1.9870 H         1 ACP         0.0564
     39 HO3'        1.3408   -0.4870    2.3219 H         1 ACP         0.4511
     40 H2'        -0.0384   -0.0310    0.0096 H         1 ACP         0.0716
     41 HO2'        2.1463   -0.7958    0.0370 H         1 ACP         0.4454
     42 H1'        -0.4769   -2.1002   -1.8093 H         1 ACP         0.1310
     43 H8         -3.2974   -2.7789    0.2194 H         1 ACP         0.3565
     44 HN61       -6.1609    2.2686   -1.6490 H         1 ACP         0.4414
     45 HN62       -6.2772    0.7257   -0.8460 H         1 ACP         0.4414
     46 H2         -1.7135    2.6057   -2.8421 H         1 ACP         0.0676
     47 H47        -5.2337   -1.2102   -0.1507 H         1 ACP         0.5052
@<TRIPOS>BOND
     1    1    2 2
     2    1    3 1
     3    1    4 1
     4    1    8 1
     5    4   32 1
     6    5    6 2
     7    5    7 1
     8    5    8 1
     9    5   12 1
    10    8   33 1
    11    8   34 1
    12    9   10 2
    13    9   11 1
    14    9   12 1
    15    9   13 1
    16   13   14 1
    17   14   15 1
    18   14   35 1
    19   14   36 1
    20   15   16 1
    21   15   17 1
    22   15   37 1
    23   16   21 1
    24   17   18 1
    25   17   19 1
    26   17   38 1
    27   18   39 1
    28   19   20 1
    29   19   21 1
    30   19   40 1
    31   20   41 1
    32   21   22 1
    33   21   42 1
    34   22   23 ar
    35   22   31 ar
    36   23   24 ar
    37   23   43 1
    38   24   25 ar
    39   24   47 1
    40   25   26 ar
    41   25   31 ar
    42   26   27 1
    43   26   28 ar
    44   27   44 1
    45   27   45 1
    46   28   29 ar
    47   29   30 ar
    48   29   46 1
    49   30   31 ar
@<TRIPOS>SUBSTRUCTURE
     1 ACP         1 GROUP 0 A     ****
@<TRIPOS>MOLECULE
[[5-(6-amino-7,8-dihydropurin-8-ylium-9-yl)-3,4-dihydroxy-tetrahydrofuran-2-yl]methoxy-oxido-phosphoryl]oxy-[[hydroxy(oxido)phosphoryl]methyl]phosphinate
   47    49     1     0     0
SMALL
USER_CHARGES

@<TRIPOS>ATOM
      1 PG          0.8746   -3.7439    6.6372 P.3       1 ACP         1.3755
      2 O1G        -0.4065   -3.3628    7.3419 O.co2     1 ACP        -0.8970
      3 O2G         1.1810   -3.2931    5.2276 O.co2     1 ACP        -0.8970
      4 O3G         2.1452   -3.4036    7.6013 O.3       1 ACP        -0.7959
      5 PB         -0.2565   -6.7031    5.9031 P.3       1 ACP         1.5194
      6 O1B        -1.5770   -6.4280    6.5838 O.co2     1 ACP        -0.8958
      7 O2B         0.3465   -8.0879    5.8474 O.co2     1 ACP        -0.8958
      8 C3B         1.0019   -5.5865    6.6671 C.3       1 ACP        -0.5612
      9 PA         -1.2314   -6.3276    3.1254 P.3       1 ACP         1.6019
     10 O1A        -2.6228   -5.8393    3.4649 O.co2     1 ACP        -0.9040
     11 O2A        -1.0069   -7.7472    2.6513 O.co2     1 ACP        -0.9040
     12 O3A        -0.2601   -6.0511    4.4088 O.3       1 ACP        -0.8156
     13 O5'        -0.5697   -5.2855    2.0524 O.3       1 ACP        -0.5465
     14 C5'        -0.7840   -3.8935    2.2172 C.3       1 ACP         0.2108
     15 C4'        -0.0724   -3.1466    1.1027 C.3       1 ACP         0.0552
     16 O4'        -0.8674   -3.1929   -0.0945 O.3       1 ACP        -0.3428
     17 C3'         0.1338   -1.6715    1.4027 C.3       1 ACP         0.0750
     18 O3'         1.2893   -1.4445    2.1808 O.3       1 ACP        -0.6066
     19 C2'         0.2158   -1.0724    0.0128 C.3       1 ACP         0.1185
     20 O2'         1.5141   -1.2448   -0.5513 O.3       1 ACP        -0.5858
     21 C1'        -0.7897   -1.9176   -0.7583 C.3       1 ACP         0.3826
     22 N9         -2.1040   -1.3333   -0.7704 N.pl3     1 ACP        -0.5729
     23 C8         -3.0822   -1.4850    0.1102 C.ar      1 ACP         0.3288
     24 N7         -4.1844   -0.7999   -0.1888 N.pl3     1 ACP        -0.5338
     25 C5         -3.8875   -0.1651   -1.3445 C.ar      1 ACP        -0.2581
     26 C6         -4.5941    0.6799   -2.1486 C.ar      1 ACP         0.7413
     27 N6         -5.9138    1.0274   -1.7939 N.pl3     1 ACP        -0.9512
     28 N1         -4.0421    1.1824   -3.2748 N.ar      1 ACP        -0.7699
     29 C2         -2.7637    0.7937   -3.5405 C.ar      1 ACP         0.6898
     30 N3         -1.9788   -0.0343   -2.8139 N.ar      1 ACP        -0.6800
     31 C4         -2.5915   -0.4902   -1.7174 C.ar      1 ACP         0.6129
     32 HOG3        2.2814   -2.4746    7.8851 H         1 ACP         0.4199
     33 H3B1        1.0674   -5.8688    7.7237 H         1 ACP         0.0672
     34 H3B2        1.9595   -5.8419    6.1999 H         1 ACP         0.0672
     35 H5'1       -1.8599   -3.6946    2.1849 H         1 ACP         0.0277
     36 H5'2       -0.3934   -3.5881    3.1930 H         1 ACP         0.0277
     37 H4'         0.8886   -3.6447    0.8779 H         1 ACP         0.1249
     38 H3'        -0.7373   -1.2359    1.9870 H         1 ACP         0.0564
     39 HO3'        1.3408   -0.4870    2.3219 H         1 ACP         0.4511
     40 H2'        -0.0384   -0.0310    0.0096 H         1 ACP         0.0716
     41 HO2'        1.4998   -0.8412   -1.4369 H         1 ACP         0.4454
     42 H1'        -0.4769   -2.1002   -1.8093 H         1 ACP         0.1310
     43 H8         -3.0031   -2.1011    0.9891 H         1 ACP         0.3565
     44 HN61       -6.3271    0.6117   -0.9836 H         1 ACP         0.4414
     45 HN62       -6.4471    1.6092   -2.4083 H         1 ACP         0.4414
     46 H2         -2.3243    1.1986   -4.4449 H         1 ACP         0.0676
     47 H47        -5.0436   -0.7722    0.3425 H         1 ACP         0.5052
@<TRIPOS>BOND
     1    1    2 2
     2    1    3 1
     3    1    4 1
     4    1    8 1
     5    4   32 1
     6    5    6 2
     7    5    7 1
     8    5    8 1
     9    5   12 1
    10    8   33 1
    11    8   34 1
    12    9   10 2
    13    9   11 1
    14    9   12 1
    15    9   13 1
    16   13   14 1
    17   14   15 1
    18   14   35 1
    19   14   36 1
    20   15   16 1
    21   15   17 1
    22   15   37 1
    23   16   21 1
    24   17   18 1
    25   17   19 1
    26   17   38 1
    27   18   39 1
    28   19   20 1
    29   19   21 1
    30   19   40 1
    31   20   41 1
    32   21   22 1
    33   21   42 1
    34   22   23 ar
    35   22   31 ar
    36   23   24 ar
    37   23   43 1
    38   24   25 ar
    39   24   47 1
    40   25   26 ar
    41   25   31 ar
    42   26   27 1
    43   26   28 ar
    44   27   44 1
    45   27   45 1
    46   28   29 ar
    47   29   30 ar
    48   29   46 1
    49   30   31 ar
@<TRIPOS>SUBSTRUCTURE
     1 ACP         1 GROUP 0 A     ****
@<TRIPOS>MOLECULE
[[5-(6-amino-7,8-dihydropurin-8-ylium-9-yl)-3,4-dihydroxy-tetrahydrofuran-2-yl]methoxy-oxido-phosphoryl]oxy-[[hydroxy(oxido)phosphoryl]methyl]phosphinate
   47    49     1     0     0
SMALL
USER_CHARGES

@<TRIPOS>ATOM
      1 PG         -4.8078   -6.0019    6.3181 P.3       1 ACP         1.3755
      2 O1G        -5.4745   -5.0581    7.2916 O.co2     1 ACP        -0.8970
      3 O2G        -3.4654   -6.6347    6.6040 O.co2     1 ACP        -0.8970
      4 O3G        -5.8670   -7.1598    5.8742 O.3       1 ACP        -0.7959
      5 PB         -3.9180   -5.8914    3.1922 P.3       1 ACP         1.5194
      6 O1B        -3.9931   -4.8700    2.0815 O.co2     1 ACP        -0.8958
      7 O2B        -4.5033   -7.2777    3.0511 O.co2     1 ACP        -0.8958
      8 C3B        -4.6716   -5.1278    4.6965 C.3       1 ACP        -0.5612
      9 PA         -1.0048   -6.4109    2.9679 P.3       1 ACP         1.6019
     10 O1A        -1.2176   -7.7423    2.2809 O.co2     1 ACP        -0.9040
     11 O2A         0.1532   -6.2121    3.9218 O.co2     1 ACP        -0.9040
     12 O3A        -2.3855   -6.0011    3.7378 O.3       1 ACP        -0.8156
     13 O5'        -0.9728   -5.2427    1.8237 O.3       1 ACP        -0.5465
     14 C5'        -0.7840   -3.8935    2.2172 C.3       1 ACP         0.2108
     15 C4'        -0.0724   -3.1466    1.1027 C.3       1 ACP         0.0552
     16 O4'        -0.8674   -3.1929   -0.0945 O.3       1 ACP        -0.3428
     17 C3'         0.1338   -1.6715    1.4027 C.3       1 ACP         0.0750
     18 O3'         1.2893   -1.4445    2.1808 O.3       1 ACP        -0.6066
     19 C2'         0.2158   -1.0724    0.0128 C.3       1 ACP         0.1185
     20 O2'         1.5141   -1.2448   -0.5513 O.3       1 ACP        -0.5858
     21 C1'        -0.7897   -1.9176   -0.7583 C.3       1 ACP         0.3826
     22 N9         -2.1040   -1.3333   -0.7704 N.pl3     1 ACP        -0.5729
     23 C8         -3.0822   -1.4850    0.1102 C.ar      1 ACP         0.3288
     24 N7         -4.1844   -0.7999   -0.1888 N.pl3     1 ACP        -0.5338
     25 C5         -3.8875   -0.1651   -1.3445 C.ar      1 ACP        -0.2581
     26 C6         -4.5941    0.6799   -2.1486 C.ar      1 ACP         0.7413
     27 N6         -5.9138    1.0274   -1.7939 N.pl3     1 ACP        -0.9512
     28 N1         -4.0421    1.1824   -3.2748 N.ar      1 ACP        -0.7699
     29 C2         -2.7637    0.7937   -3.5405 C.ar      1 ACP         0.6898
     30 N3         -1.9788   -0.0343   -2.8139 N.ar      1 ACP        -0.6800
     31 C4         -2.5915   -0.4902   -1.7174 C.ar      1 ACP         0.6129
     32 HOG3       -6.2437   -7.7406    6.5692 H         1 ACP         0.4199
     33 H3B1       -4.1087   -4.2087    4.8939 H         1 ACP         0.0672
     34 H3B2       -5.6883   -4.8344    4.4126 H         1 ACP         0.0672
     35 H5'1       -1.7614   -3.4427    2.4167 H         1 ACP         0.0277
     36 H5'2       -0.1870   -3.8723    3.1344 H         1 ACP         0.0277
     37 H4'         0.8886   -3.6447    0.8779 H         1 ACP         0.1249
     38 H3'        -0.7373   -1.2359    1.9870 H         1 ACP         0.0564
     39 HO3'        1.1626   -1.9325    3.0084 H         1 ACP         0.4511
     40 H2'        -0.0384   -0.0310    0.0096 H         1 ACP         0.0716
     41 HO2'        2.1463   -0.7958    0.0370 H         1 ACP         0.4454
     42 H1'        -0.4769   -2.1002   -1.8093 H         1 ACP         0.1310
     43 H8         -3.0031   -2.1011    0.9891 H         1 ACP         0.3565
     44 HN61       -6.3271    0.6117   -0.9836 H         1 ACP         0.4414
     45 HN62       -6.4471    1.6092   -2.4083 H         1 ACP         0.4414
     46 H2         -2.3243    1.1986   -4.4449 H         1 ACP         0.0676
     47 H47        -5.0436   -0.7722    0.3425 H         1 ACP         0.5052
@<TRIPOS>BOND
     1    1    2 2
     2    1    3 1
     3    1    4 1
     4    1    8 1
     5    4   32 1
     6    5    6 2
     7    5    7 1
     8    5    8 1
     9    5   12 1
    10    8   33 1
    11    8   34 1
    12    9   10 2
    13    9   11 1
    14    9   12 1
    15    9   13 1
    16   13   14 1
    17   14   15 1
    18   14   35 1
    19   14   36 1
    20   15   16 1
    21   15   17 1
    22   15   37 1
    23   16   21 1
    24   17   18 1
    25   17   19 1
    26   17   38 1
    27   18   39 1
    28   19   20 1
    29   19   21 1
    30   19   40 1
    31   20   41 1
    32   21   22 1
    33   21   42 1
    34   22   23 ar
    35   22   31 ar
    36   23   24 ar
    37   23   43 1
    38   24   25 ar
    39   24   47 1
    40   25   26 ar
    41   25   31 ar
    42   26   27 1
    43   26   28 ar
    44   27   44 1
    45   27   45 1
    46   28   29 ar
    47   29   30 ar
    48   29   46 1
    49   30   31 ar
@<TRIPOS>SUBSTRUCTURE
     1 ACP         1 GROUP 0 A     ****
@<TRIPOS>MOLECULE
[[5-(6-amino-7,8-dihydropurin-8-ylium-9-yl)-3,4-dihydroxy-tetrahydrofuran-2-yl]methoxy-oxido-phosphoryl]oxy-[[hydroxy(oxido)phosphoryl]methyl]phosphinate
   47    49     1     0     0
SMALL
USER_CHARGES

@<TRIPOS>ATOM
      1 PG         -2.7805   -1.0031   -3.3844 P.3       1 ACP         1.3755
      2 O1G        -4.1041   -1.1040   -4.1060 O.co2     1 ACP        -0.8970
      3 O2G        -1.6749   -0.0880   -3.8580 O.co2     1 ACP        -0.8970
      4 O3G        -3.0476   -0.7500   -1.7955 O.3       1 ACP        -0.7959
      5 PB         -0.4560   -3.0822   -2.4629 P.3       1 ACP         1.5194
      6 O1B        -0.2322   -4.5724   -2.5718 O.co2     1 ACP        -0.8958
      7 O2B        -0.4376   -2.3610   -1.1347 O.co2     1 ACP        -0.8958
      8 C3B        -2.0755   -2.7066   -3.2693 C.3       1 ACP        -0.5612
      9 PA          2.1362   -2.2698   -3.6575 P.3       1 ACP         1.6019
     10 O1A         2.5073   -1.2450   -4.7072 O.co2     1 ACP        -0.9040
     11 O2A         2.6360   -3.6946   -3.7605 O.co2     1 ACP        -0.9040
     12 O3A         0.5093   -2.3009   -3.5192 O.3       1 ACP        -0.8156
     13 O5'         2.5237   -1.6631   -2.1889 O.3       1 ACP        -0.5465
     14 C5'         2.2816   -0.2918   -1.9206 C.3       1 ACP         0.2108
     15 C4'         2.7248    0.0226   -0.4980 C.3       1 ACP         0.0552
     16 O4'         2.4697    1.4219   -0.2462 O.3       1 ACP        -0.3428
     17 C3'         1.9404   -0.7419    0.5596 C.3       1 ACP         0.0750
     18 O3'         2.7418   -0.8086    1.7389 O.3       1 ACP        -0.6066
     19 C2'         0.7477    0.1630    0.7858 C.3       1 ACP         0.1185
     20 O2'         0.1373   -0.0577    2.0407 O.3       1 ACP        -0.5858
     21 C1'         1.3733    1.5427    0.6747 C.3       1 ACP         0.3826
     22 N9          0.4520    2.5240    0.1767 N.pl3     1 ACP        -0.5729
     23 C8         -0.3477    3.3274    0.8626 C.ar      1 ACP         0.3288
     24 N7         -1.0836    4.1323    0.0983 N.pl3     1 ACP        -0.5338
     25 C5         -0.7273    3.8194   -1.1674 C.ar      1 ACP        -0.2581
     26 C6         -1.1208    4.2877   -2.3863 C.ar      1 ACP         0.7413
     27 N6         -2.0932    5.3066   -2.4528 N.pl3     1 ACP        -0.9512
     28 N1         -0.5892    3.7853   -3.5223 N.ar      1 ACP        -0.7699
     29 C2          0.3427    2.8040   -3.3648 C.ar      1 ACP         0.6898
     30 N3          0.8012    2.2709   -2.2093 N.ar      1 ACP        -0.6800
     31 C4          0.2307    2.8167   -1.1312 C.ar      1 ACP         0.6129
     32 HOG3       -3.5423    0.0532   -1.5265 H         1 ACP         0.4199
     33 H3B1       -2.0031   -3.0750   -4.2986 H         1 ACP         0.0672
     34 H3B2       -2.8223   -3.3204   -2.7536 H         1 ACP         0.0672
     35 H5'1        2.8429    0.3140   -2.6391 H         1 ACP         0.0277
     36 H5'2        1.2125   -0.0906   -2.0420 H         1 ACP         0.0277
     37 H4'         3.8050   -0.1388   -0.4008 H         1 ACP         0.1249
     38 H3'         1.6784   -1.7629    0.2714 H         1 ACP         0.0564
     39 HO3'        2.2232   -1.2979    2.3953 H         1 ACP         0.4511
     40 H2'        -0.0011    0.0027    0.0003 H         1 ACP         0.0716
     41 HO2'       -0.6141    0.5574    2.1082 H         1 ACP         0.4454
     42 H1'         1.7826    1.9024    1.6451 H         1 ACP         0.1310
     43 H8         -0.4040    3.3373    1.9373 H         1 ACP         0.3565
     44 HN61       -2.5133    5.6366   -1.6073 H         1 ACP         0.4414
     45 HN62       -2.4153    5.6161   -3.3477 H         1 ACP         0.4414
     46 H2          0.7668    2.4032   -4.2782 H         1 ACP         0.0676
     47 H47        -1.7549    4.8194    0.4122 H         1 ACP         0.5052
@<TRIPOS>BOND
     1    1    2 2
     2    1    3 1
     3    1    4 1
     4    1    8 1
     5    4   32 1
     6    5    6 2
     7    5    7 1
     8    5    8 1
     9    5   12 1
    10    8   33 1
    11    8   34 1
    12    9   10 2
    13    9   11 1
    14    9   12 1
    15    9   13 1
    16   13   14 1
    17   14   15 1
    18   14   35 1
    19   14   36 1
    20   15   16 1
    21   15   17 1
    22   15   37 1
    23   16   21 1
    24   17   18 1
    25   17   19 1
    26   17   38 1
    27   18   39 1
    28   19   20 1
    29   19   21 1
    30   19   40 1
    31   20   41 1
    32   21   22 1
    33   21   42 1
    34   22   23 ar
    35   22   31 ar
    36   23   24 ar
    37   23   43 1
    38   24   25 ar
    39   24   47 1
    40   25   26 ar
    41   25   31 ar
    42   26   27 1
    43   26   28 ar
    44   27   44 1
    45   27   45 1
    46   28   29 ar
    47   29   30 ar
    48   29   46 1
    49   30   31 ar
@<TRIPOS>SUBSTRUCTURE
     1 ACP         1 GROUP 0 A     ****
@<TRIPOS>MOLECULE
[[5-(6-amino-7,8-dihydropurin-8-ylium-9-yl)-3,4-dihydroxy-tetrahydrofuran-2-yl]methoxy-oxido-phosphoryl]oxy-[[hydroxy(oxido)phosphoryl]methyl]phosphinate
   47    49     1     0     0
SMALL
USER_CHARGES

@<TRIPOS>ATOM
      1 PG         -4.3004   -6.3317    5.4603 P.3       1 ACP         1.3755
      2 O1G        -5.2629   -5.6514    6.4056 O.co2     1 ACP        -0.8970
      3 O2G        -4.5571   -7.7160    4.9107 O.co2     1 ACP        -0.8970
      4 O3G        -3.9421   -5.3208    4.2316 O.3       1 ACP        -0.7959
      5 PB         -1.1401   -7.0978    5.4933 P.3       1 ACP         1.5194
      6 O1B        -1.4345   -8.5574    5.2373 O.co2     1 ACP        -0.8958
      7 O2B         0.0542   -6.6481    6.3031 O.co2     1 ACP        -0.8958
      8 C3B        -2.6429   -6.3603    6.2754 C.3       1 ACP        -0.5612
      9 PA         -0.3084   -6.4368    2.7224 P.3       1 ACP         1.6019
     10 O1A        -0.6613   -7.7629    2.0847 O.co2     1 ACP        -0.9040
     11 O2A         1.1316   -6.0899    3.0334 O.co2     1 ACP        -0.9040
     12 O3A        -1.1872   -6.2712    4.0888 O.3       1 ACP        -0.8156
     13 O5'        -0.9728   -5.2427    1.8237 O.3       1 ACP        -0.5465
     14 C5'        -0.7840   -3.8935    2.2172 C.3       1 ACP         0.2108
     15 C4'        -0.0724   -3.1466    1.1027 C.3       1 ACP         0.0552
     16 O4'        -0.8674   -3.1929   -0.0945 O.3       1 ACP        -0.3428
     17 C3'         0.1338   -1.6715    1.4027 C.3       1 ACP         0.0750
     18 O3'         1.2893   -1.4445    2.1808 O.3       1 ACP        -0.6066
     19 C2'         0.2158   -1.0724    0.0128 C.3       1 ACP         0.1185
     20 O2'         1.5141   -1.2448   -0.5513 O.3       1 ACP        -0.5858
     21 C1'        -0.7897   -1.9176   -0.7583 C.3       1 ACP         0.3826
     22 N9         -2.1040   -1.3333   -0.7704 N.pl3     1 ACP        -0.5729
     23 C8         -3.0822   -1.4850    0.1102 C.ar      1 ACP         0.3288
     24 N7         -4.1844   -0.7999   -0.1888 N.pl3     1 ACP        -0.5338
     25 C5         -3.8875   -0.1651   -1.3445 C.ar      1 ACP        -0.2581
     26 C6         -4.5941    0.6799   -2.1486 C.ar      1 ACP         0.7413
     27 N6         -5.9138    1.0274   -1.7939 N.pl3     1 ACP        -0.9512
     28 N1         -4.0421    1.1824   -3.2748 N.ar      1 ACP        -0.7699
     29 C2         -2.7637    0.7937   -3.5405 C.ar      1 ACP         0.6898
     30 N3         -1.9788   -0.0343   -2.8139 N.ar      1 ACP        -0.6800
     31 C4         -2.5915   -0.4902   -1.7174 C.ar      1 ACP         0.6129
     32 HOG3       -4.6726   -5.0021    3.6599 H         1 ACP         0.4199
     33 H3B1       -2.7834   -6.8796    7.2299 H         1 ACP         0.0672
     34 H3B2       -2.3881   -5.3194    6.5034 H         1 ACP         0.0672
     35 H5'1       -1.7614   -3.4427    2.4167 H         1 ACP         0.0277
     36 H5'2       -0.1870   -3.8723    3.1344 H         1 ACP         0.0277
     37 H4'         0.8886   -3.6447    0.8779 H         1 ACP         0.1249
     38 H3'        -0.7373   -1.2359    1.9870 H         1 ACP         0.0564
     39 HO3'        1.3408   -0.4870    2.3219 H         1 ACP         0.4511
     40 H2'        -0.0384   -0.0310    0.0096 H         1 ACP         0.0716
     41 HO2'        2.1463   -0.7958    0.0370 H         1 ACP         0.4454
     42 H1'        -0.4769   -2.1002   -1.8093 H         1 ACP         0.1310
     43 H8         -3.0031   -2.1011    0.9891 H         1 ACP         0.3565
     44 HN61       -6.4144    1.6837   -2.3586 H         1 ACP         0.4414
     45 HN62       -6.2940    0.6861   -0.9341 H         1 ACP         0.4414
     46 H2         -2.3243    1.1986   -4.4449 H         1 ACP         0.0676
     47 H47        -5.0436   -0.7722    0.3425 H         1 ACP         0.5052
@<TRIPOS>BOND
     1    1    2 2
     2    1    3 1
     3    1    4 1
     4    1    8 1
     5    4   32 1
     6    5    6 2
     7    5    7 1
     8    5    8 1
     9    5   12 1
    10    8   33 1
    11    8   34 1
    12    9   10 2
    13    9   11 1
    14    9   12 1
    15    9   13 1
    16   13   14 1
    17   14   15 1
    18   14   35 1
    19   14   36 1
    20   15   16 1
    21   15   17 1
    22   15   37 1
    23   16   21 1
    24   17   18 1
    25   17   19 1
    26   17   38 1
    27   18   39 1
    28   19   20 1
    29   19   21 1
    30   19   40 1
    31   20   41 1
    32   21   22 1
    33   21   42 1
    34   22   23 ar
    35   22   31 ar
    36   23   24 ar
    37   23   43 1
    38   24   25 ar
    39   24   47 1
    40   25   26 ar
    41   25   31 ar
    42   26   27 1
    43   26   28 ar
    44   27   44 1
    45   27   45 1
    46   28   29 ar
    47   29   30 ar
    48   29   46 1
    49   30   31 ar
@<TRIPOS>SUBSTRUCTURE
     1 ACP         1 GROUP 0 A     ****
@<TRIPOS>MOLECULE
[[5-(6-amino-7,8-dihydropurin-8-ylium-9-yl)-3,4-dihydroxy-tetrahydrofuran-2-yl]methoxy-oxido-phosphoryl]oxy-[[hydroxy(oxido)phosphoryl]methyl]phosphinate
   47    49     1     0     0
SMALL
USER_CHARGES

@<TRIPOS>ATOM
      1 PG         -0.7903   -0.9049   -7.1782 P.3       1 ACP         1.3755
      2 O1G        -2.1220   -1.6180   -7.2080 O.co2     1 ACP        -0.8970
      3 O2G         0.5208   -1.6455   -7.3072 O.co2     1 ACP        -0.8970
      4 O3G        -0.8161    0.3358   -8.2365 O.3       1 ACP        -0.7959
      5 PB          0.7311    1.1214   -5.1398 P.3       1 ACP         1.5194
      6 O1B         0.4103    1.7589   -3.8082 O.co2     1 ACP        -0.8958
      7 O2B         1.1129    1.9393   -6.3521 O.co2     1 ACP        -0.8958
      8 C3B        -0.7174    0.0777   -5.6157 C.3       1 ACP        -0.5612
      9 PA          3.3324   -0.0529   -4.3266 P.3       1 ACP         1.6019
     10 O1A         4.1264    0.9964   -5.0738 O.co2     1 ACP        -0.9040
     11 O2A         3.8347   -1.4774   -4.2320 O.co2     1 ACP        -0.9040
     12 O3A         1.8151   -0.0782   -4.9299 O.3       1 ACP        -0.8156
     13 O5'         3.0198    0.5138   -2.8245 O.3       1 ACP        -0.5465
     14 C5'         2.2816   -0.2918   -1.9206 C.3       1 ACP         0.2108
     15 C4'         2.7248    0.0226   -0.4980 C.3       1 ACP         0.0552
     16 O4'         2.4697    1.4219   -0.2462 O.3       1 ACP        -0.3428
     17 C3'         1.9404   -0.7419    0.5596 C.3       1 ACP         0.0750
     18 O3'         2.7418   -0.8086    1.7389 O.3       1 ACP        -0.6066
     19 C2'         0.7477    0.1630    0.7858 C.3       1 ACP         0.1185
     20 O2'         0.1373   -0.0577    2.0407 O.3       1 ACP        -0.5858
     21 C1'         1.3733    1.5427    0.6747 C.3       1 ACP         0.3826
     22 N9          0.4520    2.5240    0.1767 N.pl3     1 ACP        -0.5729
     23 C8         -0.8602    2.5861    0.3496 C.ar      1 ACP         0.3288
     24 N7         -1.4308    3.6326   -0.2443 N.pl3     1 ACP        -0.5338
     25 C5         -0.4080    4.2856   -0.8394 C.ar      1 ACP        -0.2581
     26 C6         -0.3432    5.4196   -1.5943 C.ar      1 ACP         0.7413
     27 N6         -1.5276    6.1333   -1.8702 N.pl3     1 ACP        -0.9512
     28 N1          0.8395    5.8603   -2.0764 N.ar      1 ACP        -0.7699
     29 C2          1.9319    5.1095   -1.7617 C.ar      1 ACP         0.6898
     30 N3          1.9773    3.9761   -1.0249 N.ar      1 ACP        -0.6800
     31 C4          0.7724    3.6031   -0.5836 C.ar      1 ACP         0.6129
     32 HOG3       -0.9745    0.1388   -9.1843 H         1 ACP         0.4199
     33 H3B1       -0.8660   -0.6385   -4.7999 H         1 ACP         0.0672
     34 H3B2       -1.5849    0.7469   -5.6258 H         1 ACP         0.0672
     35 H5'1        1.2153   -0.0781   -2.0454 H         1 ACP         0.0277
     36 H5'2        2.4645   -1.3454   -2.1547 H         1 ACP         0.0277
     37 H4'         3.8050   -0.1388   -0.4008 H         1 ACP         0.1249
     38 H3'         1.6784   -1.7629    0.2714 H         1 ACP         0.0564
     39 HO3'        2.2232   -1.2979    2.3953 H         1 ACP         0.4511
     40 H2'        -0.0011    0.0027    0.0003 H         1 ACP         0.0716
     41 HO2'       -0.1563   -0.9855    2.0596 H         1 ACP         0.4454
     42 H1'         1.7826    1.9024    1.6451 H         1 ACP         0.1310
     43 H8         -1.4217    1.8638    0.9164 H         1 ACP         0.3565
     44 HN61       -2.4023    5.7711   -1.5477 H         1 ACP         0.4414
     45 HN62       -1.4857    6.9379   -2.4627 H         1 ACP         0.4414
     46 H2          2.8789    5.4660   -2.1503 H         1 ACP         0.0676
     47 H47        -2.4129    3.8706   -0.2402 H         1 ACP         0.5052
@<TRIPOS>BOND
     1    1    2 2
     2    1    3 1
     3    1    4 1
     4    1    8 1
     5    4   32 1
     6    5    6 2
     7    5    7 1
     8    5    8 1
     9    5   12 1
    10    8   33 1
    11    8   34 1
    12    9   10 2
    13    9   11 1
    14    9   12 1
    15    9   13 1
    16   13   14 1
    17   14   15 1
    18   14   35 1
    19   14   36 1
    20   15   16 1
    21   15   17 1
    22   15   37 1
    23   16   21 1
    24   17   18 1
    25   17   19 1
    26   17   38 1
    27   18   39 1
    28   19   20 1
    29   19   21 1
    30   19   40 1
    31   20   41 1
    32   21   22 1
    33   21   42 1
    34   22   23 ar
    35   22   31 ar
    36   23   24 ar
    37   23   43 1
    38   24   25 ar
    39   24   47 1
    40   25   26 ar
    41   25   31 ar
    42   26   27 1
    43   26   28 ar
    44   27   44 1
    45   27   45 1
    46   28   29 ar
    47   29   30 ar
    48   29   46 1
    49   30   31 ar
@<TRIPOS>SUBSTRUCTURE
     1 ACP         1 GROUP 0 A     ****
@<TRIPOS>MOLECULE
[[5-(6-amino-7,8-dihydropurin-8-ylium-9-yl)-3,4-dihydroxy-tetrahydrofuran-2-yl]methoxy-oxido-phosphoryl]oxy-[[hydroxy(oxido)phosphoryl]methyl]phosphinate
   47    49     1     0     0
SMALL
USER_CHARGES

@<TRIPOS>ATOM
      1 PG         -4.5647   -4.0061    4.8569 P.3       1 ACP         1.3755
      2 O1G        -4.7049   -3.1160    3.6441 O.co2     1 ACP        -0.8970
      3 O2G        -3.3835   -3.9066    5.7944 O.co2     1 ACP        -0.8970
      4 O3G        -5.9463   -3.9638    5.7225 O.3       1 ACP        -0.7959
      5 PB         -3.4810   -6.4952    3.0666 P.3       1 ACP         1.5194
      6 O1B        -3.5849   -5.6942    1.7898 O.co2     1 ACP        -0.8958
      7 O2B        -3.6834   -7.9927    3.0955 O.co2     1 ACP        -0.8958
      8 C3B        -4.6644   -5.7577    4.2790 C.3       1 ACP        -0.5612
      9 PA         -0.5394   -6.2504    3.3727 P.3       1 ACP         1.6019
     10 O1A        -0.2967   -7.6723    2.9158 O.co2     1 ACP        -0.9040
     11 O2A         0.3368   -5.6217    4.4346 O.co2     1 ACP        -0.9040
     12 O3A        -2.0977   -6.1184    3.8429 O.3       1 ACP        -0.8156
     13 O5'        -0.5697   -5.2855    2.0524 O.3       1 ACP        -0.5465
     14 C5'        -0.7840   -3.8935    2.2172 C.3       1 ACP         0.2108
     15 C4'        -0.0724   -3.1466    1.1027 C.3       1 ACP         0.0552
     16 O4'        -0.8674   -3.1929   -0.0945 O.3       1 ACP        -0.3428
     17 C3'         0.1338   -1.6715    1.4027 C.3       1 ACP         0.0750
     18 O3'         1.2893   -1.4445    2.1808 O.3       1 ACP        -0.6066
     19 C2'         0.2158   -1.0724    0.0128 C.3       1 ACP         0.1185
     20 O2'         1.5141   -1.2448   -0.5513 O.3       1 ACP        -0.5858
     21 C1'        -0.7897   -1.9176   -0.7583 C.3       1 ACP         0.3826
     22 N9         -2.1040   -1.3333   -0.7704 N.pl3     1 ACP        -0.5729
     23 C8         -3.0822   -1.4850    0.1102 C.ar      1 ACP         0.3288
     24 N7         -4.1844   -0.7999   -0.1888 N.pl3     1 ACP        -0.5338
     25 C5         -3.8875   -0.1651   -1.3445 C.ar      1 ACP        -0.2581
     26 C6         -4.5941    0.6799   -2.1486 C.ar      1 ACP         0.7413
     27 N6         -5.9138    1.0274   -1.7939 N.pl3     1 ACP        -0.9512
     28 N1         -4.0421    1.1824   -3.2748 N.ar      1 ACP        -0.7699
     29 C2         -2.7637    0.7937   -3.5405 C.ar      1 ACP         0.6898
     30 N3         -1.9788   -0.0343   -2.8139 N.ar      1 ACP        -0.6800
     31 C4         -2.5915   -0.4902   -1.7174 C.ar      1 ACP         0.6129
     32 HOG3       -6.2496   -3.1012    6.0777 H         1 ACP         0.4199
     33 H3B1       -5.6652   -5.8789    3.8497 H         1 ACP         0.0672
     34 H3B2       -4.6141   -6.3864    5.1749 H         1 ACP         0.0672
     35 H5'1       -1.8599   -3.6946    2.1849 H         1 ACP         0.0277
     36 H5'2       -0.3934   -3.5881    3.1930 H         1 ACP         0.0277
     37 H4'         0.8886   -3.6447    0.8779 H         1 ACP         0.1249
     38 H3'        -0.7373   -1.2359    1.9870 H         1 ACP         0.0564
     39 HO3'        2.0374   -1.7816    1.6652 H         1 ACP         0.4511
     40 H2'        -0.0384   -0.0310    0.0096 H         1 ACP         0.0716
     41 HO2'        1.4998   -0.8412   -1.4369 H         1 ACP         0.4454
     42 H1'        -0.4769   -2.1002   -1.8093 H         1 ACP         0.1310
     43 H8         -3.0031   -2.1011    0.9891 H         1 ACP         0.3565
     44 HN61       -6.3271    0.6117   -0.9836 H         1 ACP         0.4414
     45 HN62       -6.4471    1.6092   -2.4083 H         1 ACP         0.4414
     46 H2         -2.3243    1.1986   -4.4449 H         1 ACP         0.0676
     47 H47        -5.0436   -0.7722    0.3425 H         1 ACP         0.5052
@<TRIPOS>BOND
     1    1    2 2
     2    1    3 1
     3    1    4 1
     4    1    8 1
     5    4   32 1
     6    5    6 2
     7    5    7 1
     8    5    8 1
     9    5   12 1
    10    8   33 1
    11    8   34 1
    12    9   10 2
    13    9   11 1
    14    9   12 1
    15    9   13 1
    16   13   14 1
    17   14   15 1
    18   14   35 1
    19   14   36 1
    20   15   16 1
    21   15   17 1
    22   15   37 1
    23   16   21 1
    24   17   18 1
    25   17   19 1
    26   17   38 1
    27   18   39 1
    28   19   20 1
    29   19   21 1
    30   19   40 1
    31   20   41 1
    32   21   22 1
    33   21   42 1
    34   22   23 ar
    35   22   31 ar
    36   23   24 ar
    37   23   43 1
    38   24   25 ar
    39   24   47 1
    40   25   26 ar
    41   25   31 ar
    42   26   27 1
    43   26   28 ar
    44   27   44 1
    45   27   45 1
    46   28   29 ar
    47   29   30 ar
    48   29   46 1
    49   30   31 ar
@<TRIPOS>SUBSTRUCTURE
     1 ACP         1 GROUP 0 A     ****
@<TRIPOS>MOLECULE
[[5-(6-amino-7,8-dihydropurin-8-ylium-9-yl)-3,4-dihydroxy-tetrahydrofuran-2-yl]methoxy-oxido-phosphoryl]oxy-[[hydroxy(oxido)phosphoryl]methyl]phosphinate
   47    49     1     0     0
SMALL
USER_CHARGES

@<TRIPOS>ATOM
      1 PG         -4.6368   -2.0623    4.2451 P.3       1 ACP         1.3755
      2 O1G        -5.5426   -3.2659    4.1274 O.co2     1 ACP        -0.8970
      3 O2G        -3.5634   -1.7616    3.2245 O.co2     1 ACP        -0.8970
      4 O3G        -5.5400   -0.7262    4.4884 O.3       1 ACP        -0.7959
      5 PB         -2.7417   -3.5396    6.4362 P.3       1 ACP         1.5194
      6 O1B        -3.5816   -4.7949    6.3982 O.co2     1 ACP        -0.8958
      7 O2B        -2.0153   -3.0954    7.6850 O.co2     1 ACP        -0.8958
      8 C3B        -3.8193   -2.1378    5.8998 C.3       1 ACP        -0.5612
      9 PA         -0.5272   -4.5716    4.7518 P.3       1 ACP         1.6019
     10 O1A        -1.1664   -5.8869    4.3629 O.co2     1 ACP        -0.9040
     11 O2A         0.5547   -4.5231    5.8089 O.co2     1 ACP        -0.9040
     12 O3A        -1.7101   -3.5279    5.1738 O.3       1 ACP        -0.8156
     13 O5'         0.0099   -3.8403    3.3910 O.3       1 ACP        -0.5465
     14 C5'        -0.7840   -3.8935    2.2172 C.3       1 ACP         0.2108
     15 C4'        -0.0724   -3.1466    1.1027 C.3       1 ACP         0.0552
     16 O4'        -0.8674   -3.1929   -0.0945 O.3       1 ACP        -0.3428
     17 C3'         0.1338   -1.6715    1.4027 C.3       1 ACP         0.0750
     18 O3'         1.2893   -1.4445    2.1808 O.3       1 ACP        -0.6066
     19 C2'         0.2158   -1.0724    0.0128 C.3       1 ACP         0.1185
     20 O2'         1.5141   -1.2448   -0.5513 O.3       1 ACP        -0.5858
     21 C1'        -0.7897   -1.9176   -0.7583 C.3       1 ACP         0.3826
     22 N9         -2.1040   -1.3333   -0.7704 N.pl3     1 ACP        -0.5729
     23 C8         -3.2304   -1.8262   -0.2767 C.ar      1 ACP         0.3288
     24 N7         -4.2847   -1.0309   -0.4481 N.pl3     1 ACP        -0.5338
     25 C5         -3.7951    0.0479   -1.0985 C.ar      1 ACP        -0.2581
     26 C6         -4.3691    1.1983   -1.5536 C.ar      1 ACP         0.7413
     27 N6         -5.7501    1.4047   -1.3573 N.pl3     1 ACP        -0.9512
     28 N1         -3.6289    2.1345   -2.1869 N.ar      1 ACP        -0.7699
     29 C2         -2.3041    1.8525   -2.3333 C.ar      1 ACP         0.6898
     30 N3         -1.6387    0.7492   -1.9218 N.ar      1 ACP        -0.6800
     31 C4         -2.4348   -0.1293   -1.3053 C.ar      1 ACP         0.6129
     32 HOG3       -6.2007   -0.4778    3.8072 H         1 ACP         0.4199
     33 H3B1       -4.6243   -2.0638    6.6394 H         1 ACP         0.0672
     34 H3B2       -3.2086   -1.2325    5.9889 H         1 ACP         0.0672
     35 H5'1       -0.9358   -4.9414    1.9395 H         1 ACP         0.0277
     36 H5'2       -1.7558   -3.4349    2.4258 H         1 ACP         0.0277
     37 H4'         0.8886   -3.6447    0.8779 H         1 ACP         0.1249
     38 H3'        -0.7373   -1.2359    1.9870 H         1 ACP         0.0564
     39 HO3'        1.1626   -1.9325    3.0084 H         1 ACP         0.4511
     40 H2'        -0.0384   -0.0310    0.0096 H         1 ACP         0.0716
     41 HO2'        2.1463   -0.7958    0.0370 H         1 ACP         0.4454
     42 H1'        -0.4769   -2.1002   -1.8093 H         1 ACP         0.1310
     43 H8         -3.2974   -2.7789    0.2194 H         1 ACP         0.3565
     44 HN61       -6.2956    0.6838   -0.9296 H         1 ACP         0.4414
     45 HN62       -6.1788    2.2266   -1.7327 H         1 ACP         0.4414
     46 H2         -1.7135    2.6057   -2.8421 H         1 ACP         0.0676
     47 H47        -5.2337   -1.2102   -0.1507 H         1 ACP         0.5052
@<TRIPOS>BOND
     1    1    2 2
     2    1    3 1
     3    1    4 1
     4    1    8 1
     5    4   32 1
     6    5    6 2
     7    5    7 1
     8    5    8 1
     9    5   12 1
    10    8   33 1
    11    8   34 1
    12    9   10 2
    13    9   11 1
    14    9   12 1
    15    9   13 1
    16   13   14 1
    17   14   15 1
    18   14   35 1
    19   14   36 1
    20   15   16 1
    21   15   17 1
    22   15   37 1
    23   16   21 1
    24   17   18 1
    25   17   19 1
    26   17   38 1
    27   18   39 1
    28   19   20 1
    29   19   21 1
    30   19   40 1
    31   20   41 1
    32   21   22 1
    33   21   42 1
    34   22   23 ar
    35   22   31 ar
    36   23   24 ar
    37   23   43 1
    38   24   25 ar
    39   24   47 1
    40   25   26 ar
    41   25   31 ar
    42   26   27 1
    43   26   28 ar
    44   27   44 1
    45   27   45 1
    46   28   29 ar
    47   29   30 ar
    48   29   46 1
    49   30   31 ar
@<TRIPOS>SUBSTRUCTURE
     1 ACP         1 GROUP 0 A     ****
@<TRIPOS>MOLECULE
[[5-(6-amino-7,8-dihydropurin-8-ylium-9-yl)-3,4-dihydroxy-tetrahydrofuran-2-yl]methoxy-oxido-phosphoryl]oxy-[[hydroxy(oxido)phosphoryl]methyl]phosphinate
   47    49     1     0     0
SMALL
USER_CHARGES

@<TRIPOS>ATOM
      1 PG         -3.1739   -4.3102    6.2699 P.3       1 ACP         1.3755
      2 O1G        -4.3164   -3.3745    5.9507 O.co2     1 ACP        -0.8970
      3 O2G        -1.7836   -4.0989    5.7162 O.co2     1 ACP        -0.8970
      4 O3G        -3.0852   -4.5263    7.8840 O.3       1 ACP        -0.7959
      5 PB         -4.1789   -6.4941    4.0799 P.3       1 ACP         1.5194
      6 O1B        -5.3586   -5.6369    3.6846 O.co2     1 ACP        -0.8958
      7 O2B        -4.2290   -8.0038    4.0301 O.co2     1 ACP        -0.8958
      8 C3B        -3.7015   -6.0170    5.8000 C.3       1 ACP        -0.5612
      9 PA         -2.4920   -5.8410    1.7274 P.3       1 ACP         1.6019
     10 O1A        -3.3846   -4.7755    1.1294 O.co2     1 ACP        -0.9040
     11 O2A        -2.4475   -7.2321    1.1329 O.co2     1 ACP        -0.9040
     12 O3A        -2.8362   -5.9691    3.3186 O.3       1 ACP        -0.8156
     13 O5'        -0.9728   -5.2427    1.8237 O.3       1 ACP        -0.5465
     14 C5'        -0.7840   -3.8935    2.2172 C.3       1 ACP         0.2108
     15 C4'        -0.0724   -3.1466    1.1027 C.3       1 ACP         0.0552
     16 O4'        -0.8674   -3.1929   -0.0945 O.3       1 ACP        -0.3428
     17 C3'         0.1338   -1.6715    1.4027 C.3       1 ACP         0.0750
     18 O3'         1.2893   -1.4445    2.1808 O.3       1 ACP        -0.6066
     19 C2'         0.2158   -1.0724    0.0128 C.3       1 ACP         0.1185
     20 O2'         1.5141   -1.2448   -0.5513 O.3       1 ACP        -0.5858
     21 C1'        -0.7897   -1.9176   -0.7583 C.3       1 ACP         0.3826
     22 N9         -2.1040   -1.3333   -0.7704 N.pl3     1 ACP        -0.5729
     23 C8         -3.0822   -1.4850    0.1102 C.ar      1 ACP         0.3288
     24 N7         -4.1844   -0.7999   -0.1888 N.pl3     1 ACP        -0.5338
     25 C5         -3.8875   -0.1651   -1.3445 C.ar      1 ACP        -0.2581
     26 C6         -4.5941    0.6799   -2.1486 C.ar      1 ACP         0.7413
     27 N6         -5.9138    1.0274   -1.7939 N.pl3     1 ACP        -0.9512
     28 N1         -4.0421    1.1824   -3.2748 N.ar      1 ACP        -0.7699
     29 C2         -2.7637    0.7937   -3.5405 C.ar      1 ACP         0.6898
     30 N3         -1.9788   -0.0343   -2.8139 N.ar      1 ACP        -0.6800
     31 C4         -2.5915   -0.4902   -1.7174 C.ar      1 ACP         0.6129
     32 HOG3       -2.9341   -3.7419    8.4533 H         1 ACP         0.4199
     33 H3B1       -4.5594   -6.2557    6.4383 H         1 ACP         0.0672
     34 H3B2       -2.8836   -6.6875    6.0863 H         1 ACP         0.0672
     35 H5'1       -1.7614   -3.4427    2.4167 H         1 ACP         0.0277
     36 H5'2       -0.1870   -3.8723    3.1344 H         1 ACP         0.0277
     37 H4'         0.8886   -3.6447    0.8779 H         1 ACP         0.1249
     38 H3'        -0.7373   -1.2359    1.9870 H         1 ACP         0.0564
     39 HO3'        1.3408   -0.4870    2.3219 H         1 ACP         0.4511
     40 H2'        -0.0384   -0.0310    0.0096 H         1 ACP         0.0716
     41 HO2'        2.1463   -0.7958    0.0370 H         1 ACP         0.4454
     42 H1'        -0.4769   -2.1002   -1.8093 H         1 ACP         0.1310
     43 H8         -3.0031   -2.1011    0.9891 H         1 ACP         0.3565
     44 HN61       -6.3271    0.6117   -0.9836 H         1 ACP         0.4414
     45 HN62       -6.4471    1.6092   -2.4083 H         1 ACP         0.4414
     46 H2         -2.3243    1.1986   -4.4449 H         1 ACP         0.0676
     47 H47        -5.0436   -0.7722    0.3425 H         1 ACP         0.5052
@<TRIPOS>BOND
     1    1    2 2
     2    1    3 1
     3    1    4 1
     4    1    8 1
     5    4   32 1
     6    5    6 2
     7    5    7 1
     8    5    8 1
     9    5   12 1
    10    8   33 1
    11    8   34 1
    12    9   10 2
    13    9   11 1
    14    9   12 1
    15    9   13 1
    16   13   14 1
    17   14   15 1
    18   14   35 1
    19   14   36 1
    20   15   16 1
    21   15   17 1
    22   15   37 1
    23   16   21 1
    24   17   18 1
    25   17   19 1
    26   17   38 1
    27   18   39 1
    28   19   20 1
    29   19   21 1
    30   19   40 1
    31   20   41 1
    32   21   22 1
    33   21   42 1
    34   22   23 ar
    35   22   31 ar
    36   23   24 ar
    37   23   43 1
    38   24   25 ar
    39   24   47 1
    40   25   26 ar
    41   25   31 ar
    42   26   27 1
    43   26   28 ar
    44   27   44 1
    45   27   45 1
    46   28   29 ar
    47   29   30 ar
    48   29   46 1
    49   30   31 ar
@<TRIPOS>SUBSTRUCTURE
     1 ACP         1 GROUP 0 A     ****
@<TRIPOS>MOLECULE
[[5-(6-amino-7,8-dihydropurin-8-ylium-9-yl)-3,4-dihydroxy-tetrahydrofuran-2-yl]methoxy-oxido-phosphoryl]oxy-[[hydroxy(oxido)phosphoryl]methyl]phosphinate
   47    49     1     0     0
SMALL
USER_CHARGES

@<TRIPOS>ATOM
      1 PG          0.1002    2.2420   -6.1216 P.3       1 ACP         1.3755
      2 O1G         0.6921    2.4436   -4.7462 O.co2     1 ACP        -0.8970
      3 O2G        -1.2308    2.8378   -6.5188 O.co2     1 ACP        -0.8970
      4 O3G         1.2164    2.6125   -7.2515 O.3       1 ACP        -0.7959
      5 PB          1.4818   -0.6857   -6.4298 P.3       1 ACP         1.5194
      6 O1B         2.4135   -0.1933   -7.5126 O.co2     1 ACP        -0.8958
      7 O2B         0.9758   -2.1093   -6.3902 O.co2     1 ACP        -0.8958
      8 C3B         0.0035    0.4228   -6.4272 C.3       1 ACP        -0.5612
      9 PA          3.4821   -0.6660   -4.2377 P.3       1 ACP         1.6019
     10 O1A         4.6119   -0.0112   -5.0023 O.co2     1 ACP        -0.9040
     11 O2A         3.4912   -2.1564   -3.9749 O.co2     1 ACP        -0.9040
     12 O3A         2.0730   -0.2777   -4.9662 O.3       1 ACP        -0.8156
     13 O5'         3.2883    0.1336   -2.8242 O.3       1 ACP        -0.5465
     14 C5'         2.2816   -0.2918   -1.9206 C.3       1 ACP         0.2108
     15 C4'         2.7248    0.0226   -0.4980 C.3       1 ACP         0.0552
     16 O4'         2.4697    1.4219   -0.2462 O.3       1 ACP        -0.3428
     17 C3'         1.9404   -0.7419    0.5596 C.3       1 ACP         0.0750
     18 O3'         2.7418   -0.8086    1.7389 O.3       1 ACP        -0.6066
     19 C2'         0.7477    0.1630    0.7858 C.3       1 ACP         0.1185
     20 O2'         0.1373   -0.0577    2.0407 O.3       1 ACP        -0.5858
     21 C1'         1.3733    1.5427    0.6747 C.3       1 ACP         0.3826
     22 N9          0.4520    2.5240    0.1767 N.pl3     1 ACP        -0.5729
     23 C8         -0.8602    2.5861    0.3496 C.ar      1 ACP         0.3288
     24 N7         -1.4308    3.6326   -0.2443 N.pl3     1 ACP        -0.5338
     25 C5         -0.4080    4.2856   -0.8394 C.ar      1 ACP        -0.2581
     26 C6         -0.3432    5.4196   -1.5943 C.ar      1 ACP         0.7413
     27 N6         -1.5276    6.1333   -1.8702 N.pl3     1 ACP        -0.9512
     28 N1          0.8395    5.8603   -2.0764 N.ar      1 ACP        -0.7699
     29 C2          1.9319    5.1095   -1.7617 C.ar      1 ACP         0.6898
     30 N3          1.9773    3.9761   -1.0249 N.ar      1 ACP        -0.6800
     31 C4          0.7724    3.6031   -0.5836 C.ar      1 ACP         0.6129
     32 HOG3        1.5826    3.5224   -7.2665 H         1 ACP         0.4199
     33 H3B1       -0.4753    0.3047   -7.4056 H         1 ACP         0.0672
     34 H3B2       -0.6818    0.0150   -5.6759 H         1 ACP         0.0672
     35 H5'1        1.3500    0.2325   -2.1560 H         1 ACP         0.0277
     36 H5'2        2.1267   -1.3683   -2.0444 H         1 ACP         0.0277
     37 H4'         3.8050   -0.1388   -0.4008 H         1 ACP         0.1249
     38 H3'         1.6784   -1.7629    0.2714 H         1 ACP         0.0564
     39 HO3'        2.2232   -1.2979    2.3953 H         1 ACP         0.4511
     40 H2'        -0.0011    0.0027    0.0003 H         1 ACP         0.0716
     41 HO2'       -0.1563   -0.9855    2.0596 H         1 ACP         0.4454
     42 H1'         1.7826    1.9024    1.6451 H         1 ACP         0.1310
     43 H8         -1.4217    1.8638    0.9164 H         1 ACP         0.3565
     44 HN61       -2.4023    5.7711   -1.5477 H         1 ACP         0.4414
     45 HN62       -1.4857    6.9379   -2.4627 H         1 ACP         0.4414
     46 H2          2.8789    5.4660   -2.1503 H         1 ACP         0.0676
     47 H47        -2.4129    3.8706   -0.2402 H         1 ACP         0.5052
@<TRIPOS>BOND
     1    1    2 2
     2    1    3 1
     3    1    4 1
     4    1    8 1
     5    4   32 1
     6    5    6 2
     7    5    7 1
     8    5    8 1
     9    5   12 1
    10    8   33 1
    11    8   34 1
    12    9   10 2
    13    9   11 1
    14    9   12 1
    15    9   13 1
    16   13   14 1
    17   14   15 1
    18   14   35 1
    19   14   36 1
    20   15   16 1
    21   15   17 1
    22   15   37 1
    23   16   21 1
    24   17   18 1
    25   17   19 1
    26   17   38 1
    27   18   39 1
    28   19   20 1
    29   19   21 1
    30   19   40 1
    31   20   41 1
    32   21   22 1
    33   21   42 1
    34   22   23 ar
    35   22   31 ar
    36   23   24 ar
    37   23   43 1
    38   24   25 ar
    39   24   47 1
    40   25   26 ar
    41   25   31 ar
    42   26   27 1
    43   26   28 ar
    44   27   44 1
    45   27   45 1
    46   28   29 ar
    47   29   30 ar
    48   29   46 1
    49   30   31 ar
@<TRIPOS>SUBSTRUCTURE
     1 ACP         1 GROUP 0 A     ****
@<TRIPOS>MOLECULE
[[5-(6-amino-7,8-dihydropurin-8-ylium-9-yl)-3,4-dihydroxy-tetrahydrofuran-2-yl]methoxy-oxido-phosphoryl]oxy-[[hydroxy(oxido)phosphoryl]methyl]phosphinate
   47    49     1     0     0
SMALL
USER_CHARGES

@<TRIPOS>ATOM
      1 PG         -2.7468   -1.2794   -2.6433 P.3       1 ACP         1.3755
      2 O1G        -3.7384   -0.1633   -2.4110 O.co2     1 ACP        -0.8970
      3 O2G        -1.7074   -1.6580   -1.6135 O.co2     1 ACP        -0.8970
      4 O3G        -3.5421   -2.6191   -3.1256 O.3       1 ACP        -0.7959
      5 PB         -0.5385   -2.0089   -4.9163 P.3       1 ACP         1.5194
      6 O1B        -0.0589   -1.3756   -6.2014 O.co2     1 ACP        -0.8958
      7 O2B        -1.0580   -3.4272   -4.8635 O.co2     1 ACP        -0.8958
      8 C3B        -1.8550   -0.9155   -4.2195 C.3       1 ACP        -0.5612
      9 PA          2.1362   -2.2698   -3.6575 P.3       1 ACP         1.6019
     10 O1A         2.9260   -1.5164   -4.7055 O.co2     1 ACP        -0.9040
     11 O2A         2.1742   -3.7818   -3.6026 O.co2     1 ACP        -0.9040
     12 O3A         0.5765   -1.7943   -3.7462 O.3       1 ACP        -0.8156
     13 O5'         2.5237   -1.6631   -2.1889 O.3       1 ACP        -0.5465
     14 C5'         2.2816   -0.2918   -1.9206 C.3       1 ACP         0.2108
     15 C4'         2.7248    0.0226   -0.4980 C.3       1 ACP         0.0552
     16 O4'         2.4697    1.4219   -0.2462 O.3       1 ACP        -0.3428
     17 C3'         1.9404   -0.7419    0.5596 C.3       1 ACP         0.0750
     18 O3'         2.7418   -0.8086    1.7389 O.3       1 ACP        -0.6066
     19 C2'         0.7477    0.1630    0.7858 C.3       1 ACP         0.1185
     20 O2'         0.1373   -0.0577    2.0407 O.3       1 ACP        -0.5858
     21 C1'         1.3733    1.5427    0.6747 C.3       1 ACP         0.3826
     22 N9          0.4520    2.5240    0.1767 N.pl3     1 ACP        -0.5729
     23 C8         -0.8602    2.5861    0.3496 C.ar      1 ACP         0.3288
     24 N7         -1.4308    3.6326   -0.2443 N.pl3     1 ACP        -0.5338
     25 C5         -0.4080    4.2856   -0.8394 C.ar      1 ACP        -0.2581
     26 C6         -0.3432    5.4196   -1.5943 C.ar      1 ACP         0.7413
     27 N6         -1.5276    6.1333   -1.8702 N.pl3     1 ACP        -0.9512
     28 N1          0.8395    5.8603   -2.0764 N.ar      1 ACP        -0.7699
     29 C2          1.9319    5.1095   -1.7617 C.ar      1 ACP         0.6898
     30 N3          1.9773    3.9761   -1.0249 N.ar      1 ACP        -0.6800
     31 C4          0.7724    3.6031   -0.5836 C.ar      1 ACP         0.6129
     32 HOG3       -4.2172   -3.0035   -2.5266 H         1 ACP         0.4199
     33 H3B1       -1.4015    0.0734   -4.0900 H         1 ACP         0.0672
     34 H3B2       -2.6201   -0.8254   -4.9986 H         1 ACP         0.0672
     35 H5'1        2.8429    0.3140   -2.6391 H         1 ACP         0.0277
     36 H5'2        1.2125   -0.0906   -2.0420 H         1 ACP         0.0277
     37 H4'         3.8050   -0.1388   -0.4008 H         1 ACP         0.1249
     38 H3'         1.6784   -1.7629    0.2714 H         1 ACP         0.0564
     39 HO3'        2.2232   -1.2979    2.3953 H         1 ACP         0.4511
     40 H2'        -0.0011    0.0027    0.0003 H         1 ACP         0.0716
     41 HO2'       -0.1563   -0.9855    2.0596 H         1 ACP         0.4454
     42 H1'         1.7826    1.9024    1.6451 H         1 ACP         0.1310
     43 H8         -1.4217    1.8638    0.9164 H         1 ACP         0.3565
     44 HN61       -2.4023    5.7711   -1.5477 H         1 ACP         0.4414
     45 HN62       -1.4857    6.9379   -2.4627 H         1 ACP         0.4414
     46 H2          2.8789    5.4660   -2.1503 H         1 ACP         0.0676
     47 H47        -2.4129    3.8706   -0.2402 H         1 ACP         0.5052
@<TRIPOS>BOND
     1    1    2 2
     2    1    3 1
     3    1    4 1
     4    1    8 1
     5    4   32 1
     6    5    6 2
     7    5    7 1
     8    5    8 1
     9    5   12 1
    10    8   33 1
    11    8   34 1
    12    9   10 2
    13    9   11 1
    14    9   12 1
    15    9   13 1
    16   13   14 1
    17   14   15 1
    18   14   35 1
    19   14   36 1
    20   15   16 1
    21   15   17 1
    22   15   37 1
    23   16   21 1
    24   17   18 1
    25   17   19 1
    26   17   38 1
    27   18   39 1
    28   19   20 1
    29   19   21 1
    30   19   40 1
    31   20   41 1
    32   21   22 1
    33   21   42 1
    34   22   23 ar
    35   22   31 ar
    36   23   24 ar
    37   23   43 1
    38   24   25 ar
    39   24   47 1
    40   25   26 ar
    41   25   31 ar
    42   26   27 1
    43   26   28 ar
    44   27   44 1
    45   27   45 1
    46   28   29 ar
    47   29   30 ar
    48   29   46 1
    49   30   31 ar
@<TRIPOS>SUBSTRUCTURE
     1 ACP         1 GROUP 0 A     ****
@<TRIPOS>MOLECULE
[[5-(6-amino-7,8-dihydropurin-8-ylium-9-yl)-3,4-dihydroxy-tetrahydrofuran-2-yl]methoxy-oxido-phosphoryl]oxy-[[hydroxy(oxido)phosphoryl]methyl]phosphinate
   47    49     1     0     0
SMALL
USER_CHARGES

@<TRIPOS>ATOM
      1 PG         -1.3216   -0.4318   -4.7967 P.3       1 ACP         1.3755
      2 O1G        -1.5881    0.3597   -3.5375 O.co2     1 ACP        -0.8970
      3 O2G        -0.7401   -1.8263   -4.7612 O.co2     1 ACP        -0.8970
      4 O3G        -2.6574   -0.4273   -5.7324 O.3       1 ACP        -0.7959
      5 PB          1.4479    1.1717   -5.3743 P.3       1 ACP         1.5194
      6 O1B         1.2787    2.0218   -4.1368 O.co2     1 ACP        -0.8958
      7 O2B         2.1387    1.6871   -6.6159 O.co2     1 ACP        -0.8958
      8 C3B        -0.2321    0.5930   -5.8807 C.3       1 ACP        -0.5612
      9 PA          3.4821   -0.6660   -4.2377 P.3       1 ACP         1.6019
     10 O1A         4.6119   -0.0112   -5.0023 O.co2     1 ACP        -0.9040
     11 O2A         3.4912   -2.1564   -3.9749 O.co2     1 ACP        -0.9040
     12 O3A         2.0730   -0.2777   -4.9662 O.3       1 ACP        -0.8156
     13 O5'         3.2883    0.1336   -2.8242 O.3       1 ACP        -0.5465
     14 C5'         2.2816   -0.2918   -1.9206 C.3       1 ACP         0.2108
     15 C4'         2.7248    0.0226   -0.4980 C.3       1 ACP         0.0552
     16 O4'         2.4697    1.4219   -0.2462 O.3       1 ACP        -0.3428
     17 C3'         1.9404   -0.7419    0.5596 C.3       1 ACP         0.0750
     18 O3'         2.7418   -0.8086    1.7389 O.3       1 ACP        -0.6066
     19 C2'         0.7477    0.1630    0.7858 C.3       1 ACP         0.1185
     20 O2'         0.1373   -0.0577    2.0407 O.3       1 ACP        -0.5858
     21 C1'         1.3733    1.5427    0.6747 C.3       1 ACP         0.3826
     22 N9          0.4520    2.5240    0.1767 N.pl3     1 ACP        -0.5729
     23 C8         -0.8602    2.5861    0.3496 C.ar      1 ACP         0.3288
     24 N7         -1.4308    3.6326   -0.2443 N.pl3     1 ACP        -0.5338
     25 C5         -0.4080    4.2856   -0.8394 C.ar      1 ACP        -0.2581
     26 C6         -0.3432    5.4196   -1.5943 C.ar      1 ACP         0.7413
     27 N6         -1.5276    6.1333   -1.8702 N.pl3     1 ACP        -0.9512
     28 N1          0.8395    5.8603   -2.0764 N.ar      1 ACP        -0.7699
     29 C2          1.9319    5.1095   -1.7617 C.ar      1 ACP         0.6898
     30 N3          1.9773    3.9761   -1.0249 N.ar      1 ACP        -0.6800
     31 C4          0.7724    3.6031   -0.5836 C.ar      1 ACP         0.6129
     32 HOG3       -3.4852   -0.8067   -5.3677 H         1 ACP         0.4199
     33 H3B1       -0.8089    1.4911   -6.1281 H         1 ACP         0.0672
     34 H3B2       -0.0927    0.0275   -6.8087 H         1 ACP         0.0672
     35 H5'1        1.3500    0.2325   -2.1560 H         1 ACP         0.0277
     36 H5'2        2.1267   -1.3683   -2.0444 H         1 ACP         0.0277
     37 H4'         3.8050   -0.1388   -0.4008 H         1 ACP         0.1249
     38 H3'         1.6784   -1.7629    0.2714 H         1 ACP         0.0564
     39 HO3'        3.5554   -1.2733    1.4914 H         1 ACP         0.4511
     40 H2'        -0.0011    0.0027    0.0003 H         1 ACP         0.0716
     41 HO2'        0.8082    0.1199    2.7232 H         1 ACP         0.4454
     42 H1'         1.7826    1.9024    1.6451 H         1 ACP         0.1310
     43 H8         -1.4217    1.8638    0.9164 H         1 ACP         0.3565
     44 HN61       -2.4023    5.7711   -1.5477 H         1 ACP         0.4414
     45 HN62       -1.4857    6.9379   -2.4627 H         1 ACP         0.4414
     46 H2          2.8789    5.4660   -2.1503 H         1 ACP         0.0676
     47 H47        -2.4129    3.8706   -0.2402 H         1 ACP         0.5052
@<TRIPOS>BOND
     1    1    2 2
     2    1    3 1
     3    1    4 1
     4    1    8 1
     5    4   32 1
     6    5    6 2
     7    5    7 1
     8    5    8 1
     9    5   12 1
    10    8   33 1
    11    8   34 1
    12    9   10 2
    13    9   11 1
    14    9   12 1
    15    9   13 1
    16   13   14 1
    17   14   15 1
    18   14   35 1
    19   14   36 1
    20   15   16 1
    21   15   17 1
    22   15   37 1
    23   16   21 1
    24   17   18 1
    25   17   19 1
    26   17   38 1
    27   18   39 1
    28   19   20 1
    29   19   21 1
    30   19   40 1
    31   20   41 1
    32   21   22 1
    33   21   42 1
    34   22   23 ar
    35   22   31 ar
    36   23   24 ar
    37   23   43 1
    38   24   25 ar
    39   24   47 1
    40   25   26 ar
    41   25   31 ar
    42   26   27 1
    43   26   28 ar
    44   27   44 1
    45   27   45 1
    46   28   29 ar
    47   29   30 ar
    48   29   46 1
    49   30   31 ar
@<TRIPOS>SUBSTRUCTURE
     1 ACP         1 GROUP 0 A     ****
@<TRIPOS>MOLECULE
[[5-(6-amino-7,8-dihydropurin-8-ylium-9-yl)-3,4-dihydroxy-tetrahydrofuran-2-yl]methoxy-oxido-phosphoryl]oxy-[[hydroxy(oxido)phosphoryl]methyl]phosphinate
   47    49     1     0     0
SMALL
USER_CHARGES

@<TRIPOS>ATOM
      1 PG         -1.6656   -0.7166   -4.9846 P.3       1 ACP         1.3755
      2 O1G        -2.9828    0.0127   -5.1117 O.co2     1 ACP        -0.8970
      3 O2G        -0.9411   -0.8425   -3.6642 O.co2     1 ACP        -0.8970
      4 O3G        -1.7930   -2.1894   -5.6734 O.3       1 ACP        -0.7959
      5 PB          1.2580   -0.5250   -6.3956 P.3       1 ACP         1.5194
      6 O1B         1.8885    0.3351   -7.4658 O.co2     1 ACP        -0.8958
      7 O2B         1.2331   -2.0334   -6.4871 O.co2     1 ACP        -0.8958
      8 C3B        -0.4886    0.0416   -6.1897 C.3       1 ACP        -0.5612
      9 PA          3.3324   -0.0529   -4.3266 P.3       1 ACP         1.6019
     10 O1A         4.1264    0.9964   -5.0738 O.co2     1 ACP        -0.9040
     11 O2A         3.8347   -1.4774   -4.2320 O.co2     1 ACP        -0.9040
     12 O3A         1.8151   -0.0782   -4.9299 O.3       1 ACP        -0.8156
     13 O5'         3.0198    0.5138   -2.8245 O.3       1 ACP        -0.5465
     14 C5'         2.2816   -0.2918   -1.9206 C.3       1 ACP         0.2108
     15 C4'         2.7248    0.0226   -0.4980 C.3       1 ACP         0.0552
     16 O4'         2.4697    1.4219   -0.2462 O.3       1 ACP        -0.3428
     17 C3'         1.9404   -0.7419    0.5596 C.3       1 ACP         0.0750
     18 O3'         2.7418   -0.8086    1.7389 O.3       1 ACP        -0.6066
     19 C2'         0.7477    0.1630    0.7858 C.3       1 ACP         0.1185
     20 O2'         0.1373   -0.0577    2.0407 O.3       1 ACP        -0.5858
     21 C1'         1.3733    1.5427    0.6747 C.3       1 ACP         0.3826
     22 N9          0.4520    2.5240    0.1767 N.pl3     1 ACP        -0.5729
     23 C8         -0.3477    3.3274    0.8626 C.ar      1 ACP         0.3288
     24 N7         -1.0836    4.1323    0.0983 N.pl3     1 ACP        -0.5338
     25 C5         -0.7273    3.8194   -1.1674 C.ar      1 ACP        -0.2581
     26 C6         -1.1208    4.2877   -2.3863 C.ar      1 ACP         0.7413
     27 N6         -2.0932    5.3066   -2.4528 N.pl3     1 ACP        -0.9512
     28 N1         -0.5892    3.7853   -3.5223 N.ar      1 ACP        -0.7699
     29 C2          0.3427    2.8040   -3.3648 C.ar      1 ACP         0.6898
     30 N3          0.8012    2.2709   -2.2093 N.ar      1 ACP        -0.6800
     31 C4          0.2307    2.8167   -1.1312 C.ar      1 ACP         0.6129
     32 HOG3       -2.4614   -2.8146   -5.3204 H         1 ACP         0.4199
     33 H3B1       -0.4423    1.1071   -5.9389 H         1 ACP         0.0672
     34 H3B2       -0.9547   -0.0423   -7.1777 H         1 ACP         0.0672
     35 H5'1        1.2153   -0.0781   -2.0454 H         1 ACP         0.0277
     36 H5'2        2.4645   -1.3454   -2.1547 H         1 ACP         0.0277
     37 H4'         3.8050   -0.1388   -0.4008 H         1 ACP         0.1249
     38 H3'         1.6784   -1.7629    0.2714 H         1 ACP         0.0564
     39 HO3'        2.2232   -1.2979    2.3953 H         1 ACP         0.4511
     40 H2'        -0.0011    0.0027    0.0003 H         1 ACP         0.0716
     41 HO2'       -0.6141    0.5574    2.1082 H         1 ACP         0.4454
     42 H1'         1.7826    1.9024    1.6451 H         1 ACP         0.1310
     43 H8         -0.4040    3.3373    1.9373 H         1 ACP         0.3565
     44 HN61       -2.5133    5.6366   -1.6073 H         1 ACP         0.4414
     45 HN62       -2.4153    5.6161   -3.3477 H         1 ACP         0.4414
     46 H2          0.7668    2.4032   -4.2782 H         1 ACP         0.0676
     47 H47        -1.7549    4.8194    0.4122 H         1 ACP         0.5052
@<TRIPOS>BOND
     1    1    2 2
     2    1    3 1
     3    1    4 1
     4    1    8 1
     5    4   32 1
     6    5    6 2
     7    5    7 1
     8    5    8 1
     9    5   12 1
    10    8   33 1
    11    8   34 1
    12    9   10 2
    13    9   11 1
    14    9   12 1
    15    9   13 1
    16   13   14 1
    17   14   15 1
    18   14   35 1
    19   14   36 1
    20   15   16 1
    21   15   17 1
    22   15   37 1
    23   16   21 1
    24   17   18 1
    25   17   19 1
    26   17   38 1
    27   18   39 1
    28   19   20 1
    29   19   21 1
    30   19   40 1
    31   20   41 1
    32   21   22 1
    33   21   42 1
    34   22   23 ar
    35   22   31 ar
    36   23   24 ar
    37   23   43 1
    38   24   25 ar
    39   24   47 1
    40   25   26 ar
    41   25   31 ar
    42   26   27 1
    43   26   28 ar
    44   27   44 1
    45   27   45 1
    46   28   29 ar
    47   29   30 ar
    48   29   46 1
    49   30   31 ar
@<TRIPOS>SUBSTRUCTURE
     1 ACP         1 GROUP 0 A     ****
@<TRIPOS>MOLECULE
[[5-(6-amino-7,8-dihydropurin-8-ylium-9-yl)-3,4-dihydroxy-tetrahydrofuran-2-yl]methoxy-oxido-phosphoryl]oxy-[[hydroxy(oxido)phosphoryl]methyl]phosphinate
   47    49     1     0     0
SMALL
USER_CHARGES

@<TRIPOS>ATOM
      1 PG          4.8163   -4.7911   -1.5811 P.3       1 ACP         1.3755
      2 O1G         4.3042   -5.8325   -0.6136 O.co2     1 ACP        -0.8970
      3 O2G         5.0835   -3.3646   -1.1590 O.co2     1 ACP        -0.8970
      4 O3G         6.1211   -5.3755   -2.3657 O.3       1 ACP        -0.7959
      5 PB          3.8651   -3.6009   -4.4540 P.3       1 ACP         1.5194
      6 O1B         2.7154   -3.8515   -5.4018 O.co2     1 ACP        -0.8958
      7 O2B         5.3073   -3.7051   -4.8937 O.co2     1 ACP        -0.8958
      8 C3B         3.6478   -4.7338   -3.0106 C.3       1 ACP        -0.5612
      9 PA          3.4821   -0.6660   -4.2377 P.3       1 ACP         1.6019
     10 O1A         2.1877   -0.5743   -5.0161 O.co2     1 ACP        -0.9040
     11 O2A         4.7937   -0.2557   -4.8717 O.co2     1 ACP        -0.9040
     12 O3A         3.6360   -2.1896   -3.6704 O.3       1 ACP        -0.8156
     13 O5'         3.2883    0.1336   -2.8242 O.3       1 ACP        -0.5465
     14 C5'         2.2816   -0.2918   -1.9206 C.3       1 ACP         0.2108
     15 C4'         2.7248    0.0226   -0.4980 C.3       1 ACP         0.0552
     16 O4'         2.4697    1.4219   -0.2462 O.3       1 ACP        -0.3428
     17 C3'         1.9404   -0.7419    0.5596 C.3       1 ACP         0.0750
     18 O3'         2.7418   -0.8086    1.7389 O.3       1 ACP        -0.6066
     19 C2'         0.7477    0.1630    0.7858 C.3       1 ACP         0.1185
     20 O2'         0.1373   -0.0577    2.0407 O.3       1 ACP        -0.5858
     21 C1'         1.3733    1.5427    0.6747 C.3       1 ACP         0.3826
     22 N9          0.4520    2.5240    0.1767 N.pl3     1 ACP        -0.5729
     23 C8          0.5305    3.2394   -0.9358 C.ar      1 ACP         0.3288
     24 N7         -0.4966    4.0680   -1.1145 N.pl3     1 ACP        -0.5338
     25 C5         -1.2879    3.8664   -0.0375 C.ar      1 ACP        -0.2581
     26 C6         -2.4754    4.4084    0.3577 C.ar      1 ACP         0.7413
     27 N6         -3.0892    5.3882   -0.4495 N.pl3     1 ACP        -0.9512
     28 N1         -3.0632    4.0158    1.5092 N.ar      1 ACP        -0.7699
     29 C2         -2.4008    3.0654    2.2262 C.ar      1 ACP         0.6898
     30 N3         -1.2259    2.4663    1.9260 N.ar      1 ACP        -0.6800
     31 C4         -0.7062    2.9047    0.7757 C.ar      1 ACP         0.6129
     32 HOG3        6.9061   -5.6361   -1.8383 H         1 ACP         0.4199
     33 H3B1        2.6616   -4.5127   -2.5875 H         1 ACP         0.0672
     34 H3B2        3.6073   -5.7481   -3.4228 H         1 ACP         0.0672
     35 H5'1        1.3500    0.2325   -2.1560 H         1 ACP         0.0277
     36 H5'2        2.1267   -1.3683   -2.0444 H         1 ACP         0.0277
     37 H4'         3.8050   -0.1388   -0.4008 H         1 ACP         0.1249
     38 H3'         1.6784   -1.7629    0.2714 H         1 ACP         0.0564
     39 HO3'        3.5554   -1.2733    1.4914 H         1 ACP         0.4511
     40 H2'        -0.0011    0.0027    0.0003 H         1 ACP         0.0716
     41 HO2'       -0.1563   -0.9855    2.0596 H         1 ACP         0.4454
     42 H1'         1.7826    1.9024    1.6451 H         1 ACP         0.1310
     43 H8          1.3437    3.1645   -1.6367 H         1 ACP         0.3565
     44 HN61       -2.6210    5.7042   -1.2748 H         1 ACP         0.4414
     45 HN62       -3.9356    5.8187   -0.1356 H         1 ACP         0.4414
     46 H2         -2.8752    2.7532    3.1495 H         1 ACP         0.0676
     47 H47        -0.6372    4.7004   -1.8900 H         1 ACP         0.5052
@<TRIPOS>BOND
     1    1    2 2
     2    1    3 1
     3    1    4 1
     4    1    8 1
     5    4   32 1
     6    5    6 2
     7    5    7 1
     8    5    8 1
     9    5   12 1
    10    8   33 1
    11    8   34 1
    12    9   10 2
    13    9   11 1
    14    9   12 1
    15    9   13 1
    16   13   14 1
    17   14   15 1
    18   14   35 1
    19   14   36 1
    20   15   16 1
    21   15   17 1
    22   15   37 1
    23   16   21 1
    24   17   18 1
    25   17   19 1
    26   17   38 1
    27   18   39 1
    28   19   20 1
    29   19   21 1
    30   19   40 1
    31   20   41 1
    32   21   22 1
    33   21   42 1
    34   22   23 ar
    35   22   31 ar
    36   23   24 ar
    37   23   43 1
    38   24   25 ar
    39   24   47 1
    40   25   26 ar
    41   25   31 ar
    42   26   27 1
    43   26   28 ar
    44   27   44 1
    45   27   45 1
    46   28   29 ar
    47   29   30 ar
    48   29   46 1
    49   30   31 ar
@<TRIPOS>SUBSTRUCTURE
     1 ACP         1 GROUP 0 A     ****
@<TRIPOS>MOLECULE
[[5-(6-amino-7,8-dihydropurin-8-ylium-9-yl)-3,4-dihydroxy-tetrahydrofuran-2-yl]methoxy-oxido-phosphoryl]oxy-[[hydroxy(oxido)phosphoryl]methyl]phosphinate
   47    49     1     0     0
SMALL
USER_CHARGES

@<TRIPOS>ATOM
      1 PG          0.2124    0.5925   -6.0735 P.3       1 ACP         1.3755
      2 O1G         0.1931    0.3514   -4.5821 O.co2     1 ACP        -0.8970
      3 O2G        -1.0556    0.7861   -6.8727 O.co2     1 ACP        -0.8970
      4 O3G         1.2547    1.7999   -6.4136 O.3       1 ACP        -0.7959
      5 PB          2.9126   -1.1789   -6.4564 P.3       1 ACP         1.5194
      6 O1B         3.7296    0.0416   -6.8106 O.co2     1 ACP        -0.8958
      7 O2B         3.2158   -2.5440   -7.0299 O.co2     1 ACP        -0.8958
      8 C3B         1.1486   -0.7965   -6.8521 C.3       1 ACP        -0.5612
      9 PA          3.8922   -1.4350   -3.6669 P.3       1 ACP         1.6019
     10 O1A         4.6953   -0.1535   -3.6174 O.co2     1 ACP        -0.9040
     11 O2A         4.5828   -2.7718   -3.8296 O.co2     1 ACP        -0.9040
     12 O3A         2.7620   -1.2907   -4.8369 O.3       1 ACP        -0.8156
     13 O5'         2.9202   -1.4821   -2.3524 O.3       1 ACP        -0.5465
     14 C5'         2.2816   -0.2918   -1.9206 C.3       1 ACP         0.2108
     15 C4'         2.7248    0.0226   -0.4980 C.3       1 ACP         0.0552
     16 O4'         2.4697    1.4219   -0.2462 O.3       1 ACP        -0.3428
     17 C3'         1.9404   -0.7419    0.5596 C.3       1 ACP         0.0750
     18 O3'         2.7418   -0.8086    1.7389 O.3       1 ACP        -0.6066
     19 C2'         0.7477    0.1630    0.7858 C.3       1 ACP         0.1185
     20 O2'         0.1373   -0.0577    2.0407 O.3       1 ACP        -0.5858
     21 C1'         1.3733    1.5427    0.6747 C.3       1 ACP         0.3826
     22 N9          0.4520    2.5240    0.1767 N.pl3     1 ACP        -0.5729
     23 C8         -0.2172    2.5216   -0.9668 C.ar      1 ACP         0.3288
     24 N7         -1.0011    3.5855   -1.1321 N.pl3     1 ACP        -0.5338
     25 C5         -0.8184    4.3200   -0.0123 C.ar      1 ACP        -0.2581
     26 C6         -1.3349    5.5079    0.4144 C.ar      1 ACP         0.7413
     27 N6         -2.2567    6.1930   -0.4036 N.pl3     1 ACP        -0.9512
     28 N1         -0.9716    6.0291    1.6069 N.ar      1 ACP        -0.7699
     29 C2         -0.0765    5.3009    2.3312 C.ar      1 ACP         0.6898
     30 N3          0.4933    4.1191    2.0023 N.ar      1 ACP        -0.6800
     31 C4          0.0865    3.6675    0.8123 C.ar      1 ACP         0.6129
     32 HOG3        1.0927    2.6830   -6.0184 H         1 ACP         0.4199
     33 H3B1        1.1027   -0.6248   -7.9332 H         1 ACP         0.0672
     34 H3B2        0.5839   -1.7116   -6.6416 H         1 ACP         0.0672
     35 H5'1        2.5581    0.5235   -2.5966 H         1 ACP         0.0277
     36 H5'2        1.1974   -0.4370   -1.9607 H         1 ACP         0.0277
     37 H4'         3.8050   -0.1388   -0.4008 H         1 ACP         0.1249
     38 H3'         1.6784   -1.7629    0.2714 H         1 ACP         0.0564
     39 HO3'        2.2232   -1.2979    2.3953 H         1 ACP         0.4511
     40 H2'        -0.0011    0.0027    0.0003 H         1 ACP         0.0716
     41 HO2'       -0.6141    0.5574    2.1082 H         1 ACP         0.4454
     42 H1'         1.7826    1.9024    1.6451 H         1 ACP         0.1310
     43 H8         -0.1423    1.7373   -1.6999 H         1 ACP         0.3565
     44 HN61       -2.4811    5.8206   -1.3042 H         1 ACP         0.4414
     45 HN62       -2.5986    7.0863   -0.1113 H         1 ACP         0.4414
     46 H2          0.2128    5.7222    3.2871 H         1 ACP         0.0676
     47 H47        -1.5947    3.7835   -1.9255 H         1 ACP         0.5052
@<TRIPOS>BOND
     1    1    2 2
     2    1    3 1
     3    1    4 1
     4    1    8 1
     5    4   32 1
     6    5    6 2
     7    5    7 1
     8    5    8 1
     9    5   12 1
    10    8   33 1
    11    8   34 1
    12    9   10 2
    13    9   11 1
    14    9   12 1
    15    9   13 1
    16   13   14 1
    17   14   15 1
    18   14   35 1
    19   14   36 1
    20   15   16 1
    21   15   17 1
    22   15   37 1
    23   16   21 1
    24   17   18 1
    25   17   19 1
    26   17   38 1
    27   18   39 1
    28   19   20 1
    29   19   21 1
    30   19   40 1
    31   20   41 1
    32   21   22 1
    33   21   42 1
    34   22   23 ar
    35   22   31 ar
    36   23   24 ar
    37   23   43 1
    38   24   25 ar
    39   24   47 1
    40   25   26 ar
    41   25   31 ar
    42   26   27 1
    43   26   28 ar
    44   27   44 1
    45   27   45 1
    46   28   29 ar
    47   29   30 ar
    48   29   46 1
    49   30   31 ar
@<TRIPOS>SUBSTRUCTURE
     1 ACP         1 GROUP 0 A     ****
@<TRIPOS>MOLECULE
[[5-(6-amino-7,8-dihydropurin-8-ylium-9-yl)-3,4-dihydroxy-tetrahydrofuran-2-yl]methoxy-oxido-phosphoryl]oxy-[[hydroxy(oxido)phosphoryl]methyl]phosphinate
   47    49     1     0     0
SMALL
USER_CHARGES

@<TRIPOS>ATOM
      1 PG         -3.3332   -4.1888    6.0915 P.3       1 ACP         1.3755
      2 O1G        -4.4404   -3.9968    7.1015 O.co2     1 ACP        -0.8970
      3 O2G        -3.4037   -3.6016    4.7006 O.co2     1 ACP        -0.8970
      4 O3G        -1.9045   -3.7949    6.7722 O.3       1 ACP        -0.7959
      5 PB         -1.7842   -6.7272    4.7753 P.3       1 ACP         1.5194
      6 O1B        -1.8612   -8.2301    4.9102 O.co2     1 ACP        -0.8958
      7 O2B        -0.4980   -5.9647    4.9952 O.co2     1 ACP        -0.8958
      8 C3B        -3.0514   -6.0053    5.9098 C.3       1 ACP        -0.5612
      9 PA         -1.8573   -6.2723    1.8436 P.3       1 ACP         1.6019
     10 O1A        -2.8476   -5.5747    0.9368 O.co2     1 ACP        -0.9040
     11 O2A        -1.3728   -7.6703    1.5255 O.co2     1 ACP        -0.9040
     12 O3A        -2.4556   -6.2653    3.3632 O.3       1 ACP        -0.8156
     13 O5'        -0.5697   -5.2855    2.0524 O.3       1 ACP        -0.5465
     14 C5'        -0.7840   -3.8935    2.2172 C.3       1 ACP         0.2108
     15 C4'        -0.0724   -3.1466    1.1027 C.3       1 ACP         0.0552
     16 O4'        -0.8674   -3.1929   -0.0945 O.3       1 ACP        -0.3428
     17 C3'         0.1338   -1.6715    1.4027 C.3       1 ACP         0.0750
     18 O3'         1.2893   -1.4445    2.1808 O.3       1 ACP        -0.6066
     19 C2'         0.2158   -1.0724    0.0128 C.3       1 ACP         0.1185
     20 O2'         1.5141   -1.2448   -0.5513 O.3       1 ACP        -0.5858
     21 C1'        -0.7897   -1.9176   -0.7583 C.3       1 ACP         0.3826
     22 N9         -2.1040   -1.3333   -0.7704 N.pl3     1 ACP        -0.5729
     23 C8         -3.0822   -1.4850    0.1102 C.ar      1 ACP         0.3288
     24 N7         -4.1844   -0.7999   -0.1888 N.pl3     1 ACP        -0.5338
     25 C5         -3.8875   -0.1651   -1.3445 C.ar      1 ACP        -0.2581
     26 C6         -4.5941    0.6799   -2.1486 C.ar      1 ACP         0.7413
     27 N6         -5.9138    1.0274   -1.7939 N.pl3     1 ACP        -0.9512
     28 N1         -4.0421    1.1824   -3.2748 N.ar      1 ACP        -0.7699
     29 C2         -2.7637    0.7937   -3.5405 C.ar      1 ACP         0.6898
     30 N3         -1.9788   -0.0343   -2.8139 N.ar      1 ACP        -0.6800
     31 C4         -2.5915   -0.4902   -1.7174 C.ar      1 ACP         0.6129
     32 HOG3       -1.7824   -2.8814    7.1081 H         1 ACP         0.4199
     33 H3B1       -4.0151   -6.4334    5.6123 H         1 ACP         0.0672
     34 H3B2       -2.8181   -6.3876    6.9098 H         1 ACP         0.0672
     35 H5'1       -1.8599   -3.6946    2.1849 H         1 ACP         0.0277
     36 H5'2       -0.3934   -3.5881    3.1930 H         1 ACP         0.0277
     37 H4'         0.8886   -3.6447    0.8779 H         1 ACP         0.1249
     38 H3'        -0.7373   -1.2359    1.9870 H         1 ACP         0.0564
     39 HO3'        1.3408   -0.4870    2.3219 H         1 ACP         0.4511
     40 H2'        -0.0384   -0.0310    0.0096 H         1 ACP         0.0716
     41 HO2'        2.1463   -0.7958    0.0370 H         1 ACP         0.4454
     42 H1'        -0.4769   -2.1002   -1.8093 H         1 ACP         0.1310
     43 H8         -3.0031   -2.1011    0.9891 H         1 ACP         0.3565
     44 HN61       -6.3271    0.6117   -0.9836 H         1 ACP         0.4414
     45 HN62       -6.4471    1.6092   -2.4083 H         1 ACP         0.4414
     46 H2         -2.3243    1.1986   -4.4449 H         1 ACP         0.0676
     47 H47        -5.0436   -0.7722    0.3425 H         1 ACP         0.5052
@<TRIPOS>BOND
     1    1    2 2
     2    1    3 1
     3    1    4 1
     4    1    8 1
     5    4   32 1
     6    5    6 2
     7    5    7 1
     8    5    8 1
     9    5   12 1
    10    8   33 1
    11    8   34 1
    12    9   10 2
    13    9   11 1
    14    9   12 1
    15    9   13 1
    16   13   14 1
    17   14   15 1
    18   14   35 1
    19   14   36 1
    20   15   16 1
    21   15   17 1
    22   15   37 1
    23   16   21 1
    24   17   18 1
    25   17   19 1
    26   17   38 1
    27   18   39 1
    28   19   20 1
    29   19   21 1
    30   19   40 1
    31   20   41 1
    32   21   22 1
    33   21   42 1
    34   22   23 ar
    35   22   31 ar
    36   23   24 ar
    37   23   43 1
    38   24   25 ar
    39   24   47 1
    40   25   26 ar
    41   25   31 ar
    42   26   27 1
    43   26   28 ar
    44   27   44 1
    45   27   45 1
    46   28   29 ar
    47   29   30 ar
    48   29   46 1
    49   30   31 ar
@<TRIPOS>SUBSTRUCTURE
     1 ACP         1 GROUP 0 A     ****
@<TRIPOS>MOLECULE
[[5-(6-amino-7,8-dihydropurin-8-ylium-9-yl)-3,4-dihydroxy-tetrahydrofuran-2-yl]methoxy-oxido-phosphoryl]oxy-[[hydroxy(oxido)phosphoryl]methyl]phosphinate
   47    49     1     0     0
SMALL
USER_CHARGES

@<TRIPOS>ATOM
      1 PG          5.1701   -4.0155   -2.2378 P.3       1 ACP         1.3755
      2 O1G         4.2065   -4.9900   -2.8740 O.co2     1 ACP        -0.8970
      3 O2G         4.7094   -2.9353   -1.2865 O.co2     1 ACP        -0.8970
      4 O3G         6.4061   -4.8382   -1.5631 O.3       1 ACP        -0.7959
      5 PB          5.3023   -2.1900   -4.9258 P.3       1 ACP         1.5194
      6 O1B         4.3452   -3.1009   -5.6584 O.co2     1 ACP        -0.8958
      7 O2B         6.3947   -1.4286   -5.6409 O.co2     1 ACP        -0.8958
      8 C3B         6.1089   -3.1897   -3.5975 C.3       1 ACP        -0.5612
      9 PA          3.3324   -0.0529   -4.3266 P.3       1 ACP         1.6019
     10 O1A         2.0985   -0.7700   -4.8296 O.co2     1 ACP        -0.9040
     11 O2A         3.9793    1.0390   -5.1511 O.co2     1 ACP        -0.9040
     12 O3A         4.4675   -1.1702   -3.9660 O.3       1 ACP        -0.8156
     13 O5'         3.0198    0.5138   -2.8245 O.3       1 ACP        -0.5465
     14 C5'         2.2816   -0.2918   -1.9206 C.3       1 ACP         0.2108
     15 C4'         2.7248    0.0226   -0.4980 C.3       1 ACP         0.0552
     16 O4'         2.4697    1.4219   -0.2462 O.3       1 ACP        -0.3428
     17 C3'         1.9404   -0.7419    0.5596 C.3       1 ACP         0.0750
     18 O3'         2.7418   -0.8086    1.7389 O.3       1 ACP        -0.6066
     19 C2'         0.7477    0.1630    0.7858 C.3       1 ACP         0.1185
     20 O2'         0.1373   -0.0577    2.0407 O.3       1 ACP        -0.5858
     21 C1'         1.3733    1.5427    0.6747 C.3       1 ACP         0.3826
     22 N9          0.4520    2.5240    0.1767 N.pl3     1 ACP        -0.5729
     23 C8         -0.8602    2.5861    0.3496 C.ar      1 ACP         0.3288
     24 N7         -1.4308    3.6326   -0.2443 N.pl3     1 ACP        -0.5338
     25 C5         -0.4080    4.2856   -0.8394 C.ar      1 ACP        -0.2581
     26 C6         -0.3432    5.4196   -1.5943 C.ar      1 ACP         0.7413
     27 N6         -1.5276    6.1333   -1.8702 N.pl3     1 ACP        -0.9512
     28 N1          0.8395    5.8603   -2.0764 N.ar      1 ACP        -0.7699
     29 C2          1.9319    5.1095   -1.7617 C.ar      1 ACP         0.6898
     30 N3          1.9773    3.9761   -1.0249 N.ar      1 ACP        -0.6800
     31 C4          0.7724    3.6031   -0.5836 C.ar      1 ACP         0.6129
     32 HOG3        6.2048   -5.4893   -0.8575 H         1 ACP         0.4199
     33 H3B1        6.6709   -3.9828   -4.1032 H         1 ACP         0.0672
     34 H3B2        6.8376   -2.5271   -3.1174 H         1 ACP         0.0672
     35 H5'1        1.2153   -0.0781   -2.0454 H         1 ACP         0.0277
     36 H5'2        2.4645   -1.3454   -2.1547 H         1 ACP         0.0277
     37 H4'         3.8050   -0.1388   -0.4008 H         1 ACP         0.1249
     38 H3'         1.6784   -1.7629    0.2714 H         1 ACP         0.0564
     39 HO3'        2.2232   -1.2979    2.3953 H         1 ACP         0.4511
     40 H2'        -0.0011    0.0027    0.0003 H         1 ACP         0.0716
     41 HO2'       -0.1563   -0.9855    2.0596 H         1 ACP         0.4454
     42 H1'         1.7826    1.9024    1.6451 H         1 ACP         0.1310
     43 H8         -1.4217    1.8638    0.9164 H         1 ACP         0.3565
     44 HN61       -2.4023    5.7711   -1.5477 H         1 ACP         0.4414
     45 HN62       -1.4857    6.9379   -2.4627 H         1 ACP         0.4414
     46 H2          2.8789    5.4660   -2.1503 H         1 ACP         0.0676
     47 H47        -2.4129    3.8706   -0.2402 H         1 ACP         0.5052
@<TRIPOS>BOND
     1    1    2 2
     2    1    3 1
     3    1    4 1
     4    1    8 1
     5    4   32 1
     6    5    6 2
     7    5    7 1
     8    5    8 1
     9    5   12 1
    10    8   33 1
    11    8   34 1
    12    9   10 2
    13    9   11 1
    14    9   12 1
    15    9   13 1
    16   13   14 1
    17   14   15 1
    18   14   35 1
    19   14   36 1
    20   15   16 1
    21   15   17 1
    22   15   37 1
    23   16   21 1
    24   17   18 1
    25   17   19 1
    26   17   38 1
    27   18   39 1
    28   19   20 1
    29   19   21 1
    30   19   40 1
    31   20   41 1
    32   21   22 1
    33   21   42 1
    34   22   23 ar
    35   22   31 ar
    36   23   24 ar
    37   23   43 1
    38   24   25 ar
    39   24   47 1
    40   25   26 ar
    41   25   31 ar
    42   26   27 1
    43   26   28 ar
    44   27   44 1
    45   27   45 1
    46   28   29 ar
    47   29   30 ar
    48   29   46 1
    49   30   31 ar
@<TRIPOS>SUBSTRUCTURE
     1 ACP         1 GROUP 0 A     ****
@<TRIPOS>MOLECULE
[[5-(6-amino-7,8-dihydropurin-8-ylium-9-yl)-3,4-dihydroxy-tetrahydrofuran-2-yl]methoxy-oxido-phosphoryl]oxy-[[hydroxy(oxido)phosphoryl]methyl]phosphinate
   47    49     1     0     0
SMALL
USER_CHARGES

@<TRIPOS>ATOM
      1 PG         -1.3288   -1.3352   -4.5948 P.3       1 ACP         1.3755
      2 O1G        -2.5178   -1.9343   -5.3090 O.co2     1 ACP        -0.8970
      3 O2G        -1.4087   -0.8566   -3.1634 O.co2     1 ACP        -0.8970
      4 O3G        -0.0417   -2.3226   -4.7630 O.3       1 ACP        -0.7959
      5 PB          0.7311    1.1214   -5.1398 P.3       1 ACP         1.5194
      6 O1B         0.4103    1.7589   -3.8082 O.co2     1 ACP        -0.8958
      7 O2B         1.1129    1.9393   -6.3521 O.co2     1 ACP        -0.8958
      8 C3B        -0.7174    0.0777   -5.6157 C.3       1 ACP        -0.5612
      9 PA          3.3324   -0.0529   -4.3266 P.3       1 ACP         1.6019
     10 O1A         4.1264    0.9964   -5.0738 O.co2     1 ACP        -0.9040
     11 O2A         3.8347   -1.4774   -4.2320 O.co2     1 ACP        -0.9040
     12 O3A         1.8151   -0.0782   -4.9299 O.3       1 ACP        -0.8156
     13 O5'         3.0198    0.5138   -2.8245 O.3       1 ACP        -0.5465
     14 C5'         2.2816   -0.2918   -1.9206 C.3       1 ACP         0.2108
     15 C4'         2.7248    0.0226   -0.4980 C.3       1 ACP         0.0552
     16 O4'         2.4697    1.4219   -0.2462 O.3       1 ACP        -0.3428
     17 C3'         1.9404   -0.7419    0.5596 C.3       1 ACP         0.0750
     18 O3'         2.7418   -0.8086    1.7389 O.3       1 ACP        -0.6066
     19 C2'         0.7477    0.1630    0.7858 C.3       1 ACP         0.1185
     20 O2'         0.1373   -0.0577    2.0407 O.3       1 ACP        -0.5858
     21 C1'         1.3733    1.5427    0.6747 C.3       1 ACP         0.3826
     22 N9          0.4520    2.5240    0.1767 N.pl3     1 ACP        -0.5729
     23 C8         -0.5899    2.3466   -0.6224 C.ar      1 ACP         0.3288
     24 N7         -1.2514    3.4689   -0.8989 N.pl3     1 ACP        -0.5338
     25 C5         -0.5826    4.4323   -0.2272 C.ar      1 ACP        -0.2581
     26 C6         -0.7636    5.7789   -0.1086 C.ar      1 ACP         0.7413
     27 N6         -1.8382    6.3927   -0.7843 N.pl3     1 ACP        -0.9512
     28 N1          0.0741    6.5233    0.6461 N.ar      1 ACP        -0.7699
     29 C2          1.0845    5.8486    1.2626 C.ar      1 ACP         0.6898
     30 N3          1.3516    4.5236    1.2116 N.ar      1 ACP        -0.6800
     31 C4          0.4827    3.8546    0.4481 C.ar      1 ACP         0.6129
     32 HOG3       -0.1066   -3.2386   -4.4180 H         1 ACP         0.4199
     33 H3B1       -1.5676    0.7593   -5.7300 H         1 ACP         0.0672
     34 H3B2       -0.4878   -0.3285   -6.6070 H         1 ACP         0.0672
     35 H5'1        1.2153   -0.0781   -2.0454 H         1 ACP         0.0277
     36 H5'2        2.4645   -1.3454   -2.1547 H         1 ACP         0.0277
     37 H4'         3.8050   -0.1388   -0.4008 H         1 ACP         0.1249
     38 H3'         1.6784   -1.7629    0.2714 H         1 ACP         0.0564
     39 HO3'        2.2232   -1.2979    2.3953 H         1 ACP         0.4511
     40 H2'        -0.0011    0.0027    0.0003 H         1 ACP         0.0716
     41 HO2'       -0.6141    0.5574    2.1082 H         1 ACP         0.4454
     42 H1'         1.7826    1.9024    1.6451 H         1 ACP         0.1310
     43 H8         -0.8833    1.3888   -1.0158 H         1 ACP         0.3565
     44 HN61       -2.4225    5.8385   -1.3773 H         1 ACP         0.4414
     45 HN62       -1.9421    7.3862   -0.7348 H         1 ACP         0.4414
     46 H2          1.7546    6.4491    1.8670 H         1 ACP         0.0676
     47 H47        -2.0705    3.5612   -1.4834 H         1 ACP         0.5052
@<TRIPOS>BOND
     1    1    2 2
     2    1    3 1
     3    1    4 1
     4    1    8 1
     5    4   32 1
     6    5    6 2
     7    5    7 1
     8    5    8 1
     9    5   12 1
    10    8   33 1
    11    8   34 1
    12    9   10 2
    13    9   11 1
    14    9   12 1
    15    9   13 1
    16   13   14 1
    17   14   15 1
    18   14   35 1
    19   14   36 1
    20   15   16 1
    21   15   17 1
    22   15   37 1
    23   16   21 1
    24   17   18 1
    25   17   19 1
    26   17   38 1
    27   18   39 1
    28   19   20 1
    29   19   21 1
    30   19   40 1
    31   20   41 1
    32   21   22 1
    33   21   42 1
    34   22   23 ar
    35   22   31 ar
    36   23   24 ar
    37   23   43 1
    38   24   25 ar
    39   24   47 1
    40   25   26 ar
    41   25   31 ar
    42   26   27 1
    43   26   28 ar
    44   27   44 1
    45   27   45 1
    46   28   29 ar
    47   29   30 ar
    48   29   46 1
    49   30   31 ar
@<TRIPOS>SUBSTRUCTURE
     1 ACP         1 GROUP 0 A     ****
@<TRIPOS>MOLECULE
[[5-(6-amino-7,8-dihydropurin-8-ylium-9-yl)-3,4-dihydroxy-tetrahydrofuran-2-yl]methoxy-oxido-phosphoryl]oxy-[[hydroxy(oxido)phosphoryl]methyl]phosphinate
   47    49     1     0     0
SMALL
USER_CHARGES

@<TRIPOS>ATOM
      1 PG         -0.5533   -4.8482   -2.0955 P.3       1 ACP         1.3755
      2 O1G        -0.0662   -6.2186   -1.6862 O.co2     1 ACP        -0.8970
      3 O2G        -2.0200   -4.4834   -2.0949 O.co2     1 ACP        -0.8970
      4 O3G         0.2866   -3.7099   -1.2838 O.3       1 ACP        -0.7959
      5 PB         -0.2371   -2.9392   -4.7091 P.3       1 ACP         1.5194
      6 O1B        -1.7343   -2.8271   -4.8771 O.co2     1 ACP        -0.8958
      7 O2B         0.7098   -2.8972   -5.8864 O.co2     1 ACP        -0.8958
      8 C3B         0.0997   -4.5058   -3.7892 C.3       1 ACP        -0.5612
      9 PA          0.1597   -0.2651   -3.4849 P.3       1 ACP         1.6019
     10 O1A        -1.2995    0.1091   -3.3420 O.co2     1 ACP        -0.9040
     11 O2A         1.0029    0.3283   -4.5928 O.co2     1 ACP        -0.9040
     12 O3A         0.2694   -1.8925   -3.5663 O.3       1 ACP        -0.8156
     13 O5'         0.8970   -0.0132   -2.0468 O.3       1 ACP        -0.5465
     14 C5'         2.2816   -0.2918   -1.9206 C.3       1 ACP         0.2108
     15 C4'         2.7248    0.0226   -0.4980 C.3       1 ACP         0.0552
     16 O4'         2.4697    1.4219   -0.2462 O.3       1 ACP        -0.3428
     17 C3'         1.9404   -0.7419    0.5596 C.3       1 ACP         0.0750
     18 O3'         2.7418   -0.8086    1.7389 O.3       1 ACP        -0.6066
     19 C2'         0.7477    0.1630    0.7858 C.3       1 ACP         0.1185
     20 O2'         0.1373   -0.0577    2.0407 O.3       1 ACP        -0.5858
     21 C1'         1.3733    1.5427    0.6747 C.3       1 ACP         0.3826
     22 N9          0.4520    2.5240    0.1767 N.pl3     1 ACP        -0.5729
     23 C8          0.1928    2.8484   -1.0815 C.ar      1 ACP         0.3288
     24 N7         -0.7248    3.8048   -1.2110 N.pl3     1 ACP        -0.5338
     25 C5         -1.0765    4.1129    0.0571 C.ar      1 ACP        -0.2581
     26 C6         -1.9614    5.0063    0.5851 C.ar      1 ACP         0.7413
     27 N6         -2.7145    5.8254   -0.2810 N.pl3     1 ACP        -0.9512
     28 N1         -2.1199    5.1113    1.9228 N.ar      1 ACP        -0.7699
     29 C2         -1.3522    4.2822    2.6839 C.ar      1 ACP         0.6898
     30 N3         -0.4501    3.3660    2.2638 N.ar      1 ACP        -0.6800
     31 C4         -0.3487    3.3198    0.9322 C.ar      1 ACP         0.6129
     32 HOG3        0.2460   -3.7085   -0.3038 H         1 ACP         0.4199
     33 H3B1       -0.2608   -5.3228   -4.4240 H         1 ACP         0.0672
     34 H3B2        1.1900   -4.5951   -3.7284 H         1 ACP         0.0672
     35 H5'1        2.4525   -1.3484   -2.1500 H         1 ACP         0.0277
     36 H5'2        2.8335    0.3232   -2.6384 H         1 ACP         0.0277
     37 H4'         3.8050   -0.1388   -0.4008 H         1 ACP         0.1249
     38 H3'         1.6784   -1.7629    0.2714 H         1 ACP         0.0564
     39 HO3'        3.5554   -1.2733    1.4914 H         1 ACP         0.4511
     40 H2'        -0.0011    0.0027    0.0003 H         1 ACP         0.0716
     41 HO2'       -0.6141    0.5574    2.1082 H         1 ACP         0.4454
     42 H1'         1.7826    1.9024    1.6451 H         1 ACP         0.1310
     43 H8          0.6728    2.3873   -1.9272 H         1 ACP         0.3565
     44 HN61       -2.5537    5.7714   -1.2667 H         1 ACP         0.4414
     45 HN62       -3.3283    6.5126    0.1080 H         1 ACP         0.4414
     46 H2         -1.4818    4.3694    3.7565 H         1 ACP         0.0676
     47 H47        -1.0701    4.2005   -2.0743 H         1 ACP         0.5052
@<TRIPOS>BOND
     1    1    2 2
     2    1    3 1
     3    1    4 1
     4    1    8 1
     5    4   32 1
     6    5    6 2
     7    5    7 1
     8    5    8 1
     9    5   12 1
    10    8   33 1
    11    8   34 1
    12    9   10 2
    13    9   11 1
    14    9   12 1
    15    9   13 1
    16   13   14 1
    17   14   15 1
    18   14   35 1
    19   14   36 1
    20   15   16 1
    21   15   17 1
    22   15   37 1
    23   16   21 1
    24   17   18 1
    25   17   19 1
    26   17   38 1
    27   18   39 1
    28   19   20 1
    29   19   21 1
    30   19   40 1
    31   20   41 1
    32   21   22 1
    33   21   42 1
    34   22   23 ar
    35   22   31 ar
    36   23   24 ar
    37   23   43 1
    38   24   25 ar
    39   24   47 1
    40   25   26 ar
    41   25   31 ar
    42   26   27 1
    43   26   28 ar
    44   27   44 1
    45   27   45 1
    46   28   29 ar
    47   29   30 ar
    48   29   46 1
    49   30   31 ar
@<TRIPOS>SUBSTRUCTURE
     1 ACP         1 GROUP 0 A     ****
@<TRIPOS>MOLECULE
[[5-(6-amino-7,8-dihydropurin-8-ylium-9-yl)-3,4-dihydroxy-tetrahydrofuran-2-yl]methoxy-oxido-phosphoryl]oxy-[[hydroxy(oxido)phosphoryl]methyl]phosphinate
   47    49     1     0     0
SMALL
USER_CHARGES

@<TRIPOS>ATOM
      1 PG         -2.0535    0.8740   -3.3896 P.3       1 ACP         1.3755
      2 O1G        -1.6706    1.5914   -4.6629 O.co2     1 ACP        -0.8970
      3 O2G        -1.1628    0.8737   -2.1685 O.co2     1 ACP        -0.8970
      4 O3G        -3.5643    1.3089   -2.9559 O.3       1 ACP        -0.7959
      5 PB         -1.1403   -2.0090   -4.5853 P.3       1 ACP         1.5194
      6 O1B        -0.7271   -1.3943   -5.9021 O.co2     1 ACP        -0.8958
      7 O2B        -1.6780   -3.4182   -4.4890 O.co2     1 ACP        -0.8958
      8 C3B        -2.3963   -0.8887   -3.8228 C.3       1 ACP        -0.5612
      9 PA          1.5993   -2.3027   -3.4829 P.3       1 ACP         1.6019
     10 O1A         2.3380   -1.5710   -4.5823 O.co2     1 ACP        -0.9040
     11 O2A         1.6167   -3.8146   -3.4164 O.co2     1 ACP        -0.9040
     12 O3A         0.0447   -1.8028   -3.4846 O.3       1 ACP        -0.8156
     13 O5'         2.0818   -1.6902   -2.0452 O.3       1 ACP        -0.5465
     14 C5'         2.2816   -0.2918   -1.9206 C.3       1 ACP         0.2108
     15 C4'         2.7248    0.0226   -0.4980 C.3       1 ACP         0.0552
     16 O4'         2.4697    1.4219   -0.2462 O.3       1 ACP        -0.3428
     17 C3'         1.9404   -0.7419    0.5596 C.3       1 ACP         0.0750
     18 O3'         2.7418   -0.8086    1.7389 O.3       1 ACP        -0.6066
     19 C2'         0.7477    0.1630    0.7858 C.3       1 ACP         0.1185
     20 O2'         0.1373   -0.0577    2.0407 O.3       1 ACP        -0.5858
     21 C1'         1.3733    1.5427    0.6747 C.3       1 ACP         0.3826
     22 N9          0.4520    2.5240    0.1767 N.pl3     1 ACP        -0.5729
     23 C8          0.5305    3.2394   -0.9358 C.ar      1 ACP         0.3288
     24 N7         -0.4966    4.0680   -1.1145 N.pl3     1 ACP        -0.5338
     25 C5         -1.2879    3.8664   -0.0375 C.ar      1 ACP        -0.2581
     26 C6         -2.4754    4.4084    0.3577 C.ar      1 ACP         0.7413
     27 N6         -3.0892    5.3882   -0.4495 N.pl3     1 ACP        -0.9512
     28 N1         -3.0632    4.0158    1.5092 N.ar      1 ACP        -0.7699
     29 C2         -2.4008    3.0654    2.2262 C.ar      1 ACP         0.6898
     30 N3         -1.2259    2.4663    1.9260 N.ar      1 ACP        -0.6800
     31 C4         -0.7062    2.9047    0.7757 C.ar      1 ACP         0.6129
     32 HOG3       -3.7446    2.2559   -2.7746 H         1 ACP         0.4199
     33 H3B1       -3.2532   -0.8720   -4.5053 H         1 ACP         0.0672
     34 H3B2       -2.7226   -1.3803   -2.8996 H         1 ACP         0.0672
     35 H5'1        3.0467    0.0218   -2.6379 H         1 ACP         0.0277
     36 H5'2        1.3432    0.2220   -2.1518 H         1 ACP         0.0277
     37 H4'         3.8050   -0.1388   -0.4008 H         1 ACP         0.1249
     38 H3'         1.6784   -1.7629    0.2714 H         1 ACP         0.0564
     39 HO3'        2.2232   -1.2979    2.3953 H         1 ACP         0.4511
     40 H2'        -0.0011    0.0027    0.0003 H         1 ACP         0.0716
     41 HO2'       -0.1563   -0.9855    2.0596 H         1 ACP         0.4454
     42 H1'         1.7826    1.9024    1.6451 H         1 ACP         0.1310
     43 H8          1.3437    3.1645   -1.6367 H         1 ACP         0.3565
     44 HN61       -3.9824    5.7507   -0.1831 H         1 ACP         0.4414
     45 HN62       -2.6676    5.6358   -1.3220 H         1 ACP         0.4414
     46 H2         -2.8752    2.7532    3.1495 H         1 ACP         0.0676
     47 H47        -0.6372    4.7004   -1.8900 H         1 ACP         0.5052
@<TRIPOS>BOND
     1    1    2 2
     2    1    3 1
     3    1    4 1
     4    1    8 1
     5    4   32 1
     6    5    6 2
     7    5    7 1
     8    5    8 1
     9    5   12 1
    10    8   33 1
    11    8   34 1
    12    9   10 2
    13    9   11 1
    14    9   12 1
    15    9   13 1
    16   13   14 1
    17   14   15 1
    18   14   35 1
    19   14   36 1
    20   15   16 1
    21   15   17 1
    22   15   37 1
    23   16   21 1
    24   17   18 1
    25   17   19 1
    26   17   38 1
    27   18   39 1
    28   19   20 1
    29   19   21 1
    30   19   40 1
    31   20   41 1
    32   21   22 1
    33   21   42 1
    34   22   23 ar
    35   22   31 ar
    36   23   24 ar
    37   23   43 1
    38   24   25 ar
    39   24   47 1
    40   25   26 ar
    41   25   31 ar
    42   26   27 1
    43   26   28 ar
    44   27   44 1
    45   27   45 1
    46   28   29 ar
    47   29   30 ar
    48   29   46 1
    49   30   31 ar
@<TRIPOS>SUBSTRUCTURE
     1 ACP         1 GROUP 0 A     ****
@<TRIPOS>MOLECULE
[[5-(6-amino-7,8-dihydropurin-8-ylium-9-yl)-3,4-dihydroxy-tetrahydrofuran-2-yl]methoxy-oxido-phosphoryl]oxy-[[hydroxy(oxido)phosphoryl]methyl]phosphinate
   47    49     1     0     0
SMALL
USER_CHARGES

@<TRIPOS>ATOM
      1 PG          7.1924   -1.7006   -0.2693 P.3       1 ACP         1.3755
      2 O1G         8.0702   -0.9242    0.6843 O.co2     1 ACP        -0.8970
      3 O2G         7.3367   -3.1929   -0.4601 O.co2     1 ACP        -0.8970
      4 O3G         5.6280   -1.3420    0.0204 O.3       1 ACP        -0.7959
      5 PB          6.4451   -1.5235   -3.4293 P.3       1 ACP         1.5194
      6 O1B         6.8833   -2.9493   -3.6696 O.co2     1 ACP        -0.8958
      7 O2B         6.5651   -0.4552   -4.4916 O.co2     1 ACP        -0.8958
      8 C3B         7.3435   -0.9143   -1.9340 C.3       1 ACP        -0.5612
      9 PA          3.5286   -2.0718   -3.4129 P.3       1 ACP         1.6019
     10 O1A         3.6075   -3.5816   -3.4780 O.co2     1 ACP        -0.9040
     11 O2A         3.1762   -1.2645   -4.6435 O.co2     1 ACP        -0.9040
     12 O3A         4.9372   -1.5072   -2.8095 O.3       1 ACP        -0.8156
     13 O5'         2.5237   -1.6631   -2.1889 O.3       1 ACP        -0.5465
     14 C5'         2.2816   -0.2918   -1.9206 C.3       1 ACP         0.2108
     15 C4'         2.7248    0.0226   -0.4980 C.3       1 ACP         0.0552
     16 O4'         2.4697    1.4219   -0.2462 O.3       1 ACP        -0.3428
     17 C3'         1.9404   -0.7419    0.5596 C.3       1 ACP         0.0750
     18 O3'         2.7418   -0.8086    1.7389 O.3       1 ACP        -0.6066
     19 C2'         0.7477    0.1630    0.7858 C.3       1 ACP         0.1185
     20 O2'         0.1373   -0.0577    2.0407 O.3       1 ACP        -0.5858
     21 C1'         1.3733    1.5427    0.6747 C.3       1 ACP         0.3826
     22 N9          0.4520    2.5240    0.1767 N.pl3     1 ACP        -0.5729
     23 C8          0.1928    2.8484   -1.0815 C.ar      1 ACP         0.3288
     24 N7         -0.7248    3.8048   -1.2110 N.pl3     1 ACP        -0.5338
     25 C5         -1.0765    4.1129    0.0571 C.ar      1 ACP        -0.2581
     26 C6         -1.9614    5.0063    0.5851 C.ar      1 ACP         0.7413
     27 N6         -2.7145    5.8254   -0.2810 N.pl3     1 ACP        -0.9512
     28 N1         -2.1199    5.1113    1.9228 N.ar      1 ACP        -0.7699
     29 C2         -1.3522    4.2822    2.6839 C.ar      1 ACP         0.6898
     30 N3         -0.4501    3.3660    2.2638 N.ar      1 ACP        -0.6800
     31 C4         -0.3487    3.3198    0.9322 C.ar      1 ACP         0.6129
     32 HOG3        5.2616   -1.5318    0.9103 H         1 ACP         0.4199
     33 H3B1        8.4103   -0.9338   -2.1828 H         1 ACP         0.0672
     34 H3B2        7.0548    0.1355   -1.8118 H         1 ACP         0.0672
     35 H5'1        2.8429    0.3140   -2.6391 H         1 ACP         0.0277
     36 H5'2        1.2125   -0.0906   -2.0420 H         1 ACP         0.0277
     37 H4'         3.8050   -0.1388   -0.4008 H         1 ACP         0.1249
     38 H3'         1.6784   -1.7629    0.2714 H         1 ACP         0.0564
     39 HO3'        2.2232   -1.2979    2.3953 H         1 ACP         0.4511
     40 H2'        -0.0011    0.0027    0.0003 H         1 ACP         0.0716
     41 HO2'       -0.6141    0.5574    2.1082 H         1 ACP         0.4454
     42 H1'         1.7826    1.9024    1.6451 H         1 ACP         0.1310
     43 H8          0.6728    2.3873   -1.9272 H         1 ACP         0.3565
     44 HN61       -2.5537    5.7714   -1.2667 H         1 ACP         0.4414
     45 HN62       -3.3283    6.5126    0.1080 H         1 ACP         0.4414
     46 H2         -1.4818    4.3694    3.7565 H         1 ACP         0.0676
     47 H47        -1.0701    4.2005   -2.0743 H         1 ACP         0.5052
@<TRIPOS>BOND
     1    1    2 2
     2    1    3 1
     3    1    4 1
     4    1    8 1
     5    4   32 1
     6    5    6 2
     7    5    7 1
     8    5    8 1
     9    5   12 1
    10    8   33 1
    11    8   34 1
    12    9   10 2
    13    9   11 1
    14    9   12 1
    15    9   13 1
    16   13   14 1
    17   14   15 1
    18   14   35 1
    19   14   36 1
    20   15   16 1
    21   15   17 1
    22   15   37 1
    23   16   21 1
    24   17   18 1
    25   17   19 1
    26   17   38 1
    27   18   39 1
    28   19   20 1
    29   19   21 1
    30   19   40 1
    31   20   41 1
    32   21   22 1
    33   21   42 1
    34   22   23 ar
    35   22   31 ar
    36   23   24 ar
    37   23   43 1
    38   24   25 ar
    39   24   47 1
    40   25   26 ar
    41   25   31 ar
    42   26   27 1
    43   26   28 ar
    44   27   44 1
    45   27   45 1
    46   28   29 ar
    47   29   30 ar
    48   29   46 1
    49   30   31 ar
@<TRIPOS>SUBSTRUCTURE
     1 ACP         1 GROUP 0 A     ****
@<TRIPOS>MOLECULE
[[5-(6-amino-7,8-dihydropurin-8-ylium-9-yl)-3,4-dihydroxy-tetrahydrofuran-2-yl]methoxy-oxido-phosphoryl]oxy-[[hydroxy(oxido)phosphoryl]methyl]phosphinate
   47    49     1     0     0
SMALL
USER_CHARGES

@<TRIPOS>ATOM
      1 PG          4.3280    1.5837   -5.6043 P.3       1 ACP         1.3755
      2 O1G         4.7787    2.1868   -4.2944 O.co2     1 ACP        -0.8970
      3 O2G         2.8665    1.4232   -5.9544 O.co2     1 ACP        -0.8970
      4 O3G         5.1001    2.3236   -6.8357 O.3       1 ACP        -0.7959
      5 PB          4.8472   -1.4445   -4.5386 P.3       1 ACP         1.5194
      6 O1B         5.3187   -0.9488   -3.1915 O.co2     1 ACP        -0.8958
      7 O2B         5.3827   -2.7133   -5.1613 O.co2     1 ACP        -0.8958
      8 C3B         5.1171   -0.0797   -5.7546 C.3       1 ACP        -0.5612
      9 PA          2.1362   -2.2698   -3.6575 P.3       1 ACP         1.6019
     10 O1A         2.4953   -3.7397   -3.6734 O.co2     1 ACP        -0.9040
     11 O2A         0.7453   -1.8118   -4.0395 O.co2     1 ACP        -0.9040
     12 O3A         3.2175   -1.4646   -4.5792 O.3       1 ACP        -0.8156
     13 O5'         2.5237   -1.6631   -2.1889 O.3       1 ACP        -0.5465
     14 C5'         2.2816   -0.2918   -1.9206 C.3       1 ACP         0.2108
     15 C4'         2.7248    0.0226   -0.4980 C.3       1 ACP         0.0552
     16 O4'         2.4697    1.4219   -0.2462 O.3       1 ACP        -0.3428
     17 C3'         1.9404   -0.7419    0.5596 C.3       1 ACP         0.0750
     18 O3'         2.7418   -0.8086    1.7389 O.3       1 ACP        -0.6066
     19 C2'         0.7477    0.1630    0.7858 C.3       1 ACP         0.1185
     20 O2'         0.1373   -0.0577    2.0407 O.3       1 ACP        -0.5858
     21 C1'         1.3733    1.5427    0.6747 C.3       1 ACP         0.3826
     22 N9          0.4520    2.5240    0.1767 N.pl3     1 ACP        -0.5729
     23 C8         -0.3477    3.3274    0.8626 C.ar      1 ACP         0.3288
     24 N7         -1.0836    4.1323    0.0983 N.pl3     1 ACP        -0.5338
     25 C5         -0.7273    3.8194   -1.1674 C.ar      1 ACP        -0.2581
     26 C6         -1.1208    4.2877   -2.3863 C.ar      1 ACP         0.7413
     27 N6         -2.0932    5.3066   -2.4528 N.pl3     1 ACP        -0.9512
     28 N1         -0.5892    3.7853   -3.5223 N.ar      1 ACP        -0.7699
     29 C2          0.3427    2.8040   -3.3648 C.ar      1 ACP         0.6898
     30 N3          0.8012    2.2709   -2.2093 N.ar      1 ACP        -0.6800
     31 C4          0.2307    2.8167   -1.1312 C.ar      1 ACP         0.6129
     32 HOG3        4.9798    3.2905   -6.9497 H         1 ACP         0.4199
     33 H3B1        6.1976    0.0991   -5.7865 H         1 ACP         0.0672
     34 H3B2        4.8223   -0.4791   -6.7313 H         1 ACP         0.0672
     35 H5'1        2.8429    0.3140   -2.6391 H         1 ACP         0.0277
     36 H5'2        1.2125   -0.0906   -2.0420 H         1 ACP         0.0277
     37 H4'         3.8050   -0.1388   -0.4008 H         1 ACP         0.1249
     38 H3'         1.6784   -1.7629    0.2714 H         1 ACP         0.0564
     39 HO3'        2.2232   -1.2979    2.3953 H         1 ACP         0.4511
     40 H2'        -0.0011    0.0027    0.0003 H         1 ACP         0.0716
     41 HO2'       -0.6141    0.5574    2.1082 H         1 ACP         0.4454
     42 H1'         1.7826    1.9024    1.6451 H         1 ACP         0.1310
     43 H8         -0.4040    3.3373    1.9373 H         1 ACP         0.3565
     44 HN61       -2.5133    5.6366   -1.6073 H         1 ACP         0.4414
     45 HN62       -2.4153    5.6161   -3.3477 H         1 ACP         0.4414
     46 H2          0.7668    2.4032   -4.2782 H         1 ACP         0.0676
     47 H47        -1.7549    4.8194    0.4122 H         1 ACP         0.5052
@<TRIPOS>BOND
     1    1    2 2
     2    1    3 1
     3    1    4 1
     4    1    8 1
     5    4   32 1
     6    5    6 2
     7    5    7 1
     8    5    8 1
     9    5   12 1
    10    8   33 1
    11    8   34 1
    12    9   10 2
    13    9   11 1
    14    9   12 1
    15    9   13 1
    16   13   14 1
    17   14   15 1
    18   14   35 1
    19   14   36 1
    20   15   16 1
    21   15   17 1
    22   15   37 1
    23   16   21 1
    24   17   18 1
    25   17   19 1
    26   17   38 1
    27   18   39 1
    28   19   20 1
    29   19   21 1
    30   19   40 1
    31   20   41 1
    32   21   22 1
    33   21   42 1
    34   22   23 ar
    35   22   31 ar
    36   23   24 ar
    37   23   43 1
    38   24   25 ar
    39   24   47 1
    40   25   26 ar
    41   25   31 ar
    42   26   27 1
    43   26   28 ar
    44   27   44 1
    45   27   45 1
    46   28   29 ar
    47   29   30 ar
    48   29   46 1
    49   30   31 ar
@<TRIPOS>SUBSTRUCTURE
     1 ACP         1 GROUP 0 A     ****
@<TRIPOS>MOLECULE
[[5-(6-amino-7,8-dihydropurin-8-ylium-9-yl)-3,4-dihydroxy-tetrahydrofuran-2-yl]methoxy-oxido-phosphoryl]oxy-[[hydroxy(oxido)phosphoryl]methyl]phosphinate
   47    49     1     0     0
SMALL
USER_CHARGES

@<TRIPOS>ATOM
      1 PG          6.5627   -2.7292   -4.9828 P.3       1 ACP         1.3755
      2 O1G         7.2503   -3.9988   -4.5379 O.co2     1 ACP        -0.8970
      3 O2G         6.4863   -1.5050   -4.0998 O.co2     1 ACP        -0.8970
      4 O3G         7.1180   -2.2994   -6.4548 O.3       1 ACP        -0.7959
      5 PB          3.6071   -1.9329   -6.0810 P.3       1 ACP         1.5194
      6 O1B         2.3232   -2.6758   -6.3678 O.co2     1 ACP        -0.8958
      7 O2B         4.3013   -1.0925   -7.1280 O.co2     1 ACP        -0.8958
      8 C3B         4.8351   -3.1693   -5.4665 C.3       1 ACP        -0.5612
      9 PA          2.7389    0.3751   -4.4298 P.3       1 ACP         1.6019
     10 O1A         1.2481    0.2227   -4.6393 O.co2     1 ACP        -0.9040
     11 O2A         3.5164    1.4419   -5.1701 O.co2     1 ACP        -0.9040
     12 O3A         3.4492   -1.0690   -4.7073 O.3       1 ACP        -0.8156
     13 O5'         3.0198    0.5138   -2.8245 O.3       1 ACP        -0.5465
     14 C5'         2.2816   -0.2918   -1.9206 C.3       1 ACP         0.2108
     15 C4'         2.7248    0.0226   -0.4980 C.3       1 ACP         0.0552
     16 O4'         2.4697    1.4219   -0.2462 O.3       1 ACP        -0.3428
     17 C3'         1.9404   -0.7419    0.5596 C.3       1 ACP         0.0750
     18 O3'         2.7418   -0.8086    1.7389 O.3       1 ACP        -0.6066
     19 C2'         0.7477    0.1630    0.7858 C.3       1 ACP         0.1185
     20 O2'         0.1373   -0.0577    2.0407 O.3       1 ACP        -0.5858
     21 C1'         1.3733    1.5427    0.6747 C.3       1 ACP         0.3826
     22 N9          0.4520    2.5240    0.1767 N.pl3     1 ACP        -0.5729
     23 C8         -0.8602    2.5861    0.3496 C.ar      1 ACP         0.3288
     24 N7         -1.4308    3.6326   -0.2443 N.pl3     1 ACP        -0.5338
     25 C5         -0.4080    4.2856   -0.8394 C.ar      1 ACP        -0.2581
     26 C6         -0.3432    5.4196   -1.5943 C.ar      1 ACP         0.7413
     27 N6         -1.5276    6.1333   -1.8702 N.pl3     1 ACP        -0.9512
     28 N1          0.8395    5.8603   -2.0764 N.ar      1 ACP        -0.7699
     29 C2          1.9319    5.1095   -1.7617 C.ar      1 ACP         0.6898
     30 N3          1.9773    3.9761   -1.0249 N.ar      1 ACP        -0.6800
     31 C4          0.7724    3.6031   -0.5836 C.ar      1 ACP         0.6129
     32 HOG3        8.0761   -2.1157   -6.5580 H         1 ACP         0.4199
     33 H3B1        4.3855   -3.6435   -4.5871 H         1 ACP         0.0672
     34 H3B2        4.9136   -3.9344   -6.2468 H         1 ACP         0.0672
     35 H5'1        1.2153   -0.0781   -2.0454 H         1 ACP         0.0277
     36 H5'2        2.4645   -1.3454   -2.1547 H         1 ACP         0.0277
     37 H4'         3.8050   -0.1388   -0.4008 H         1 ACP         0.1249
     38 H3'         1.6784   -1.7629    0.2714 H         1 ACP         0.0564
     39 HO3'        2.2232   -1.2979    2.3953 H         1 ACP         0.4511
     40 H2'        -0.0011    0.0027    0.0003 H         1 ACP         0.0716
     41 HO2'       -0.1563   -0.9855    2.0596 H         1 ACP         0.4454
     42 H1'         1.7826    1.9024    1.6451 H         1 ACP         0.1310
     43 H8         -1.4217    1.8638    0.9164 H         1 ACP         0.3565
     44 HN61       -2.4023    5.7711   -1.5477 H         1 ACP         0.4414
     45 HN62       -1.4857    6.9379   -2.4627 H         1 ACP         0.4414
     46 H2          2.8789    5.4660   -2.1503 H         1 ACP         0.0676
     47 H47        -2.4129    3.8706   -0.2402 H         1 ACP         0.5052
@<TRIPOS>BOND
     1    1    2 2
     2    1    3 1
     3    1    4 1
     4    1    8 1
     5    4   32 1
     6    5    6 2
     7    5    7 1
     8    5    8 1
     9    5   12 1
    10    8   33 1
    11    8   34 1
    12    9   10 2
    13    9   11 1
    14    9   12 1
    15    9   13 1
    16   13   14 1
    17   14   15 1
    18   14   35 1
    19   14   36 1
    20   15   16 1
    21   15   17 1
    22   15   37 1
    23   16   21 1
    24   17   18 1
    25   17   19 1
    26   17   38 1
    27   18   39 1
    28   19   20 1
    29   19   21 1
    30   19   40 1
    31   20   41 1
    32   21   22 1
    33   21   42 1
    34   22   23 ar
    35   22   31 ar
    36   23   24 ar
    37   23   43 1
    38   24   25 ar
    39   24   47 1
    40   25   26 ar
    41   25   31 ar
    42   26   27 1
    43   26   28 ar
    44   27   44 1
    45   27   45 1
    46   28   29 ar
    47   29   30 ar
    48   29   46 1
    49   30   31 ar
@<TRIPOS>SUBSTRUCTURE
     1 ACP         1 GROUP 0 A     ****
@<TRIPOS>MOLECULE
[[5-(6-amino-7,8-dihydropurin-8-ylium-9-yl)-3,4-dihydroxy-tetrahydrofuran-2-yl]methoxy-oxido-phosphoryl]oxy-[[hydroxy(oxido)phosphoryl]methyl]phosphinate
   47    49     1     0     0
SMALL
USER_CHARGES

@<TRIPOS>ATOM
      1 PG          3.3020    2.4604   -5.4785 P.3       1 ACP         1.3755
      2 O1G         3.3723    3.4966   -6.5759 O.co2     1 ACP        -0.8970
      3 O2G         3.4517    2.8240   -4.0192 O.co2     1 ACP        -0.8970
      4 O3G         1.9603    1.5541   -5.6744 O.3       1 ACP        -0.7959
      5 PB          4.8419   -0.3188   -4.7857 P.3       1 ACP         1.5194
      6 O1B         5.2480    0.1822   -3.4194 O.co2     1 ACP        -0.8958
      7 O2B         5.6944   -1.2866   -5.5737 O.co2     1 ACP        -0.8958
      8 C3B         4.5600    1.1613   -5.8553 C.3       1 ACP        -0.5612
      9 PA          2.6179   -2.0499   -3.8561 P.3       1 ACP         1.6019
     10 O1A         3.4201   -3.3175   -4.0548 O.co2     1 ACP        -0.9040
     11 O2A         1.1258   -2.0342   -4.1089 O.co2     1 ACP        -0.9040
     12 O3A         3.3049   -0.8608   -4.7399 O.3       1 ACP        -0.8156
     13 O5'         2.9202   -1.4821   -2.3524 O.3       1 ACP        -0.5465
     14 C5'         2.2816   -0.2918   -1.9206 C.3       1 ACP         0.2108
     15 C4'         2.7248    0.0226   -0.4980 C.3       1 ACP         0.0552
     16 O4'         2.4697    1.4219   -0.2462 O.3       1 ACP        -0.3428
     17 C3'         1.9404   -0.7419    0.5596 C.3       1 ACP         0.0750
     18 O3'         2.7418   -0.8086    1.7389 O.3       1 ACP        -0.6066
     19 C2'         0.7477    0.1630    0.7858 C.3       1 ACP         0.1185
     20 O2'         0.1373   -0.0577    2.0407 O.3       1 ACP        -0.5858
     21 C1'         1.3733    1.5427    0.6747 C.3       1 ACP         0.3826
     22 N9          0.4520    2.5240    0.1767 N.pl3     1 ACP        -0.5729
     23 C8         -0.8602    2.5861    0.3496 C.ar      1 ACP         0.3288
     24 N7         -1.4308    3.6326   -0.2443 N.pl3     1 ACP        -0.5338
     25 C5         -0.4080    4.2856   -0.8394 C.ar      1 ACP        -0.2581
     26 C6         -0.3432    5.4196   -1.5943 C.ar      1 ACP         0.7413
     27 N6         -1.5276    6.1333   -1.8702 N.pl3     1 ACP        -0.9512
     28 N1          0.8395    5.8603   -2.0764 N.ar      1 ACP        -0.7699
     29 C2          1.9319    5.1095   -1.7617 C.ar      1 ACP         0.6898
     30 N3          1.9773    3.9761   -1.0249 N.ar      1 ACP        -0.6800
     31 C4          0.7724    3.6031   -0.5836 C.ar      1 ACP         0.6129
     32 HOG3        1.0872    2.0006   -5.6545 H         1 ACP         0.4199
     33 H3B1        5.5216    1.6817   -5.9257 H         1 ACP         0.0672
     34 H3B2        4.3227    0.7755   -6.8530 H         1 ACP         0.0672
     35 H5'1        2.5581    0.5235   -2.5966 H         1 ACP         0.0277
     36 H5'2        1.1974   -0.4370   -1.9607 H         1 ACP         0.0277
     37 H4'         3.8050   -0.1388   -0.4008 H         1 ACP         0.1249
     38 H3'         1.6784   -1.7629    0.2714 H         1 ACP         0.0564
     39 HO3'        2.2232   -1.2979    2.3953 H         1 ACP         0.4511
     40 H2'        -0.0011    0.0027    0.0003 H         1 ACP         0.0716
     41 HO2'       -0.1563   -0.9855    2.0596 H         1 ACP         0.4454
     42 H1'         1.7826    1.9024    1.6451 H         1 ACP         0.1310
     43 H8         -1.4217    1.8638    0.9164 H         1 ACP         0.3565
     44 HN61       -2.4023    5.7711   -1.5477 H         1 ACP         0.4414
     45 HN62       -1.4857    6.9379   -2.4627 H         1 ACP         0.4414
     46 H2          2.8789    5.4660   -2.1503 H         1 ACP         0.0676
     47 H47        -2.4129    3.8706   -0.2402 H         1 ACP         0.5052
@<TRIPOS>BOND
     1    1    2 2
     2    1    3 1
     3    1    4 1
     4    1    8 1
     5    4   32 1
     6    5    6 2
     7    5    7 1
     8    5    8 1
     9    5   12 1
    10    8   33 1
    11    8   34 1
    12    9   10 2
    13    9   11 1
    14    9   12 1
    15    9   13 1
    16   13   14 1
    17   14   15 1
    18   14   35 1
    19   14   36 1
    20   15   16 1
    21   15   17 1
    22   15   37 1
    23   16   21 1
    24   17   18 1
    25   17   19 1
    26   17   38 1
    27   18   39 1
    28   19   20 1
    29   19   21 1
    30   19   40 1
    31   20   41 1
    32   21   22 1
    33   21   42 1
    34   22   23 ar
    35   22   31 ar
    36   23   24 ar
    37   23   43 1
    38   24   25 ar
    39   24   47 1
    40   25   26 ar
    41   25   31 ar
    42   26   27 1
    43   26   28 ar
    44   27   44 1
    45   27   45 1
    46   28   29 ar
    47   29   30 ar
    48   29   46 1
    49   30   31 ar
@<TRIPOS>SUBSTRUCTURE
     1 ACP         1 GROUP 0 A     ****
@<TRIPOS>MOLECULE
[[5-(6-amino-7,8-dihydropurin-8-ylium-9-yl)-3,4-dihydroxy-tetrahydrofuran-2-yl]methoxy-oxido-phosphoryl]oxy-[[hydroxy(oxido)phosphoryl]methyl]phosphinate
   47    49     1     0     0
SMALL
USER_CHARGES

@<TRIPOS>ATOM
      1 PG         -2.4785   -7.1579   -0.7463 P.3       1 ACP         1.3755
      2 O1G        -2.1852   -8.3852    0.0847 O.co2     1 ACP        -0.8970
      3 O2G        -1.6053   -5.9254   -0.6951 O.co2     1 ACP        -0.8970
      4 O3G        -2.7023   -7.5970   -2.3009 O.3       1 ACP        -0.7959
      5 PB         -4.7713   -6.1437    1.3249 P.3       1 ACP         1.5194
      6 O1B        -4.5611   -7.3363    2.2283 O.co2     1 ACP        -0.8958
      7 O2B        -6.1188   -5.4758    1.1750 O.co2     1 ACP        -0.8958
      8 C3B        -4.2063   -6.6261   -0.3669 C.3       1 ACP        -0.5612
      9 PA         -3.2840   -4.1951    2.9975 P.3       1 ACP         1.6019
     10 O1A        -2.7446   -5.1752    4.0164 O.co2     1 ACP        -0.9040
     11 O2A        -4.4566   -3.2996    3.3347 O.co2     1 ACP        -0.9040
     12 O3A        -3.6354   -5.0144    1.6292 O.3       1 ACP        -0.8156
     13 O5'        -2.0403   -3.2809    2.4568 O.3       1 ACP        -0.5465
     14 C5'        -0.7840   -3.8935    2.2172 C.3       1 ACP         0.2108
     15 C4'        -0.0724   -3.1466    1.1027 C.3       1 ACP         0.0552
     16 O4'        -0.8674   -3.1929   -0.0945 O.3       1 ACP        -0.3428
     17 C3'         0.1338   -1.6715    1.4027 C.3       1 ACP         0.0750
     18 O3'         1.2893   -1.4445    2.1808 O.3       1 ACP        -0.6066
     19 C2'         0.2158   -1.0724    0.0128 C.3       1 ACP         0.1185
     20 O2'         1.5141   -1.2448   -0.5513 O.3       1 ACP        -0.5858
     21 C1'        -0.7897   -1.9176   -0.7583 C.3       1 ACP         0.3826
     22 N9         -2.1040   -1.3333   -0.7704 N.pl3     1 ACP        -0.5729
     23 C8         -3.2304   -1.8262   -0.2767 C.ar      1 ACP         0.3288
     24 N7         -4.2847   -1.0309   -0.4481 N.pl3     1 ACP        -0.5338
     25 C5         -3.7951    0.0479   -1.0985 C.ar      1 ACP        -0.2581
     26 C6         -4.3691    1.1983   -1.5536 C.ar      1 ACP         0.7413
     27 N6         -5.7501    1.4047   -1.3573 N.pl3     1 ACP        -0.9512
     28 N1         -3.6289    2.1345   -2.1869 N.ar      1 ACP        -0.7699
     29 C2         -2.3041    1.8525   -2.3333 C.ar      1 ACP         0.6898
     30 N3         -1.6387    0.7492   -1.9218 N.ar      1 ACP        -0.6800
     31 C4         -2.4348   -0.1293   -1.3053 C.ar      1 ACP         0.6129
     32 HOG3       -1.9683   -8.0483   -2.7698 H         1 ACP         0.4199
     33 H3B1       -4.8543   -7.4491   -0.6883 H         1 ACP         0.0672
     34 H3B2       -4.4197   -5.7691   -1.0153 H         1 ACP         0.0672
     35 H5'1       -0.1929   -3.8610    3.1379 H         1 ACP         0.0277
     36 H5'2       -0.9476   -4.9382    1.9344 H         1 ACP         0.0277
     37 H4'         0.8886   -3.6447    0.8779 H         1 ACP         0.1249
     38 H3'        -0.7373   -1.2359    1.9870 H         1 ACP         0.0564
     39 HO3'        1.3408   -0.4870    2.3219 H         1 ACP         0.4511
     40 H2'        -0.0384   -0.0310    0.0096 H         1 ACP         0.0716
     41 HO2'        2.1463   -0.7958    0.0370 H         1 ACP         0.4454
     42 H1'        -0.4769   -2.1002   -1.8093 H         1 ACP         0.1310
     43 H8         -3.2974   -2.7789    0.2194 H         1 ACP         0.3565
     44 HN61       -6.2956    0.6838   -0.9296 H         1 ACP         0.4414
     45 HN62       -6.1788    2.2266   -1.7327 H         1 ACP         0.4414
     46 H2         -1.7135    2.6057   -2.8421 H         1 ACP         0.0676
     47 H47        -5.2337   -1.2102   -0.1507 H         1 ACP         0.5052
@<TRIPOS>BOND
     1    1    2 2
     2    1    3 1
     3    1    4 1
     4    1    8 1
     5    4   32 1
     6    5    6 2
     7    5    7 1
     8    5    8 1
     9    5   12 1
    10    8   33 1
    11    8   34 1
    12    9   10 2
    13    9   11 1
    14    9   12 1
    15    9   13 1
    16   13   14 1
    17   14   15 1
    18   14   35 1
    19   14   36 1
    20   15   16 1
    21   15   17 1
    22   15   37 1
    23   16   21 1
    24   17   18 1
    25   17   19 1
    26   17   38 1
    27   18   39 1
    28   19   20 1
    29   19   21 1
    30   19   40 1
    31   20   41 1
    32   21   22 1
    33   21   42 1
    34   22   23 ar
    35   22   31 ar
    36   23   24 ar
    37   23   43 1
    38   24   25 ar
    39   24   47 1
    40   25   26 ar
    41   25   31 ar
    42   26   27 1
    43   26   28 ar
    44   27   44 1
    45   27   45 1
    46   28   29 ar
    47   29   30 ar
    48   29   46 1
    49   30   31 ar
@<TRIPOS>SUBSTRUCTURE
     1 ACP         1 GROUP 0 A     ****
@<TRIPOS>MOLECULE
[[5-(6-amino-7,8-dihydropurin-8-ylium-9-yl)-3,4-dihydroxy-tetrahydrofuran-2-yl]methoxy-oxido-phosphoryl]oxy-[[hydroxy(oxido)phosphoryl]methyl]phosphinate
   47    49     1     0     0
SMALL
USER_CHARGES

@<TRIPOS>ATOM
      1 PG         -0.7053   -0.8802    7.1729 P.3       1 ACP         1.3755
      2 O1G        -1.2629    0.5204    7.2736 O.co2     1 ACP        -0.8970
      3 O2G         0.3605   -1.2503    6.1672 O.co2     1 ACP        -0.8970
      4 O3G        -0.2509   -1.3903    8.6538 O.3       1 ACP        -0.7959
      5 PB         -1.9337   -3.8596    6.7377 P.3       1 ACP         1.5194
      6 O1B        -3.3142   -4.4436    6.5482 O.co2     1 ACP        -0.8958
      7 O2B        -1.0081   -4.3239    7.8387 O.co2     1 ACP        -0.8958
      8 C3B        -2.1276   -2.0309    6.9181 C.3       1 ACP        -0.5612
      9 PA         -0.3451   -5.0629    4.5388 P.3       1 ACP         1.6019
     10 O1A        -1.3600   -6.0957    4.0994 O.co2     1 ACP        -0.9040
     11 O2A         0.8546   -5.4655    5.3689 O.co2     1 ACP        -0.9040
     12 O3A        -1.1337   -3.8632    5.3171 O.3       1 ACP        -0.8156
     13 O5'         0.1597   -4.2446    3.2157 O.3       1 ACP        -0.5465
     14 C5'        -0.7840   -3.8935    2.2172 C.3       1 ACP         0.2108
     15 C4'        -0.0724   -3.1466    1.1027 C.3       1 ACP         0.0552
     16 O4'        -0.8674   -3.1929   -0.0945 O.3       1 ACP        -0.3428
     17 C3'         0.1338   -1.6715    1.4027 C.3       1 ACP         0.0750
     18 O3'         1.2893   -1.4445    2.1808 O.3       1 ACP        -0.6066
     19 C2'         0.2158   -1.0724    0.0128 C.3       1 ACP         0.1185
     20 O2'         1.5141   -1.2448   -0.5513 O.3       1 ACP        -0.5858
     21 C1'        -0.7897   -1.9176   -0.7583 C.3       1 ACP         0.3826
     22 N9         -2.1040   -1.3333   -0.7704 N.pl3     1 ACP        -0.5729
     23 C8         -3.0822   -1.4850    0.1102 C.ar      1 ACP         0.3288
     24 N7         -4.1844   -0.7999   -0.1888 N.pl3     1 ACP        -0.5338
     25 C5         -3.8875   -0.1651   -1.3445 C.ar      1 ACP        -0.2581
     26 C6         -4.5941    0.6799   -2.1486 C.ar      1 ACP         0.7413
     27 N6         -5.9138    1.0274   -1.7939 N.pl3     1 ACP        -0.9512
     28 N1         -4.0421    1.1824   -3.2748 N.ar      1 ACP        -0.7699
     29 C2         -2.7637    0.7937   -3.5405 C.ar      1 ACP         0.6898
     30 N3         -1.9788   -0.0343   -2.8139 N.ar      1 ACP        -0.6800
     31 C4         -2.5915   -0.4902   -1.7174 C.ar      1 ACP         0.6129
     32 HOG3        0.4360   -0.8804    9.1338 H         1 ACP         0.4199
     33 H3B1       -2.6419   -1.6823    6.0156 H         1 ACP         0.0672
     34 H3B2       -2.8088   -1.8786    7.7626 H         1 ACP         0.0672
     35 H5'1       -1.2472   -4.8069    1.8308 H         1 ACP         0.0277
     36 H5'2       -1.5578   -3.2634    2.6671 H         1 ACP         0.0277
     37 H4'         0.8886   -3.6447    0.8779 H         1 ACP         0.1249
     38 H3'        -0.7373   -1.2359    1.9870 H         1 ACP         0.0564
     39 HO3'        1.1626   -1.9325    3.0084 H         1 ACP         0.4511
     40 H2'        -0.0384   -0.0310    0.0096 H         1 ACP         0.0716
     41 HO2'        2.1463   -0.7958    0.0370 H         1 ACP         0.4454
     42 H1'        -0.4769   -2.1002   -1.8093 H         1 ACP         0.1310
     43 H8         -3.0031   -2.1011    0.9891 H         1 ACP         0.3565
     44 HN61       -6.3271    0.6117   -0.9836 H         1 ACP         0.4414
     45 HN62       -6.4471    1.6092   -2.4083 H         1 ACP         0.4414
     46 H2         -2.3243    1.1986   -4.4449 H         1 ACP         0.0676
     47 H47        -5.0436   -0.7722    0.3425 H         1 ACP         0.5052
@<TRIPOS>BOND
     1    1    2 2
     2    1    3 1
     3    1    4 1
     4    1    8 1
     5    4   32 1
     6    5    6 2
     7    5    7 1
     8    5    8 1
     9    5   12 1
    10    8   33 1
    11    8   34 1
    12    9   10 2
    13    9   11 1
    14    9   12 1
    15    9   13 1
    16   13   14 1
    17   14   15 1
    18   14   35 1
    19   14   36 1
    20   15   16 1
    21   15   17 1
    22   15   37 1
    23   16   21 1
    24   17   18 1
    25   17   19 1
    26   17   38 1
    27   18   39 1
    28   19   20 1
    29   19   21 1
    30   19   40 1
    31   20   41 1
    32   21   22 1
    33   21   42 1
    34   22   23 ar
    35   22   31 ar
    36   23   24 ar
    37   23   43 1
    38   24   25 ar
    39   24   47 1
    40   25   26 ar
    41   25   31 ar
    42   26   27 1
    43   26   28 ar
    44   27   44 1
    45   27   45 1
    46   28   29 ar
    47   29   30 ar
    48   29   46 1
    49   30   31 ar
@<TRIPOS>SUBSTRUCTURE
     1 ACP         1 GROUP 0 A     ****
@<TRIPOS>MOLECULE
[[5-(6-amino-7,8-dihydropurin-8-ylium-9-yl)-3,4-dihydroxy-tetrahydrofuran-2-yl]methoxy-oxido-phosphoryl]oxy-[[hydroxy(oxido)phosphoryl]methyl]phosphinate
   47    49     1     0     0
SMALL
USER_CHARGES

@<TRIPOS>ATOM
      1 PG          3.1037    3.3624   -5.4918 P.3       1 ACP         1.3755
      2 O1G         4.5302    3.7144   -5.8439 O.co2     1 ACP        -0.8970
      3 O2G         2.6114    3.3377   -4.0631 O.co2     1 ACP        -0.8970
      4 O3G         2.0853    4.2572   -6.3985 O.3       1 ACP        -0.7959
      5 PB          1.1037    0.8625   -6.0625 P.3       1 ACP         1.5194
      6 O1B         1.2000   -0.4541   -6.7973 O.co2     1 ACP        -0.8958
      7 O2B         0.0343    1.8830   -6.3775 O.co2     1 ACP        -0.8958
      8 C3B         2.7373    1.7094   -6.2303 C.3       1 ACP        -0.5612
      9 PA          0.1597   -0.2651   -3.4849 P.3       1 ACP         1.6019
     10 O1A         0.3026   -1.7287   -3.8413 O.co2     1 ACP        -0.9040
     11 O2A        -1.2014    0.3966   -3.4747 O.co2     1 ACP        -0.9040
     12 O3A         1.1487    0.6008   -4.4539 O.3       1 ACP        -0.8156
     13 O5'         0.8970   -0.0132   -2.0468 O.3       1 ACP        -0.5465
     14 C5'         2.2816   -0.2918   -1.9206 C.3       1 ACP         0.2108
     15 C4'         2.7248    0.0226   -0.4980 C.3       1 ACP         0.0552
     16 O4'         2.4697    1.4219   -0.2462 O.3       1 ACP        -0.3428
     17 C3'         1.9404   -0.7419    0.5596 C.3       1 ACP         0.0750
     18 O3'         2.7418   -0.8086    1.7389 O.3       1 ACP        -0.6066
     19 C2'         0.7477    0.1630    0.7858 C.3       1 ACP         0.1185
     20 O2'         0.1373   -0.0577    2.0407 O.3       1 ACP        -0.5858
     21 C1'         1.3733    1.5427    0.6747 C.3       1 ACP         0.3826
     22 N9          0.4520    2.5240    0.1767 N.pl3     1 ACP        -0.5729
     23 C8          0.1928    2.8484   -1.0815 C.ar      1 ACP         0.3288
     24 N7         -0.7248    3.8048   -1.2110 N.pl3     1 ACP        -0.5338
     25 C5         -1.0765    4.1129    0.0571 C.ar      1 ACP        -0.2581
     26 C6         -1.9614    5.0063    0.5851 C.ar      1 ACP         0.7413
     27 N6         -2.7145    5.8254   -0.2810 N.pl3     1 ACP        -0.9512
     28 N1         -2.1199    5.1113    1.9228 N.ar      1 ACP        -0.7699
     29 C2         -1.3522    4.2822    2.6839 C.ar      1 ACP         0.6898
     30 N3         -0.4501    3.3660    2.2638 N.ar      1 ACP        -0.6800
     31 C4         -0.3487    3.3198    0.9322 C.ar      1 ACP         0.6129
     32 HOG3        2.1286    5.2344   -6.3242 H         1 ACP         0.4199
     33 H3B1        3.4871    1.0223   -5.8225 H         1 ACP         0.0672
     34 H3B2        2.9254    1.7983   -7.3060 H         1 ACP         0.0672
     35 H5'1        2.4525   -1.3484   -2.1500 H         1 ACP         0.0277
     36 H5'2        2.8335    0.3232   -2.6384 H         1 ACP         0.0277
     37 H4'         3.8050   -0.1388   -0.4008 H         1 ACP         0.1249
     38 H3'         1.6784   -1.7629    0.2714 H         1 ACP         0.0564
     39 HO3'        2.2232   -1.2979    2.3953 H         1 ACP         0.4511
     40 H2'        -0.0011    0.0027    0.0003 H         1 ACP         0.0716
     41 HO2'       -0.6141    0.5574    2.1082 H         1 ACP         0.4454
     42 H1'         1.7826    1.9024    1.6451 H         1 ACP         0.1310
     43 H8          0.6728    2.3873   -1.9272 H         1 ACP         0.3565
     44 HN61       -2.5537    5.7714   -1.2667 H         1 ACP         0.4414
     45 HN62       -3.3283    6.5126    0.1080 H         1 ACP         0.4414
     46 H2         -1.4818    4.3694    3.7565 H         1 ACP         0.0676
     47 H47        -1.0701    4.2005   -2.0743 H         1 ACP         0.5052
@<TRIPOS>BOND
     1    1    2 2
     2    1    3 1
     3    1    4 1
     4    1    8 1
     5    4   32 1
     6    5    6 2
     7    5    7 1
     8    5    8 1
     9    5   12 1
    10    8   33 1
    11    8   34 1
    12    9   10 2
    13    9   11 1
    14    9   12 1
    15    9   13 1
    16   13   14 1
    17   14   15 1
    18   14   35 1
    19   14   36 1
    20   15   16 1
    21   15   17 1
    22   15   37 1
    23   16   21 1
    24   17   18 1
    25   17   19 1
    26   17   38 1
    27   18   39 1
    28   19   20 1
    29   19   21 1
    30   19   40 1
    31   20   41 1
    32   21   22 1
    33   21   42 1
    34   22   23 ar
    35   22   31 ar
    36   23   24 ar
    37   23   43 1
    38   24   25 ar
    39   24   47 1
    40   25   26 ar
    41   25   31 ar
    42   26   27 1
    43   26   28 ar
    44   27   44 1
    45   27   45 1
    46   28   29 ar
    47   29   30 ar
    48   29   46 1
    49   30   31 ar
@<TRIPOS>SUBSTRUCTURE
     1 ACP         1 GROUP 0 A     ****
@<TRIPOS>MOLECULE
[[5-(6-amino-7,8-dihydropurin-8-ylium-9-yl)-3,4-dihydroxy-tetrahydrofuran-2-yl]methoxy-oxido-phosphoryl]oxy-[[hydroxy(oxido)phosphoryl]methyl]phosphinate
   47    49     1     0     0
SMALL
USER_CHARGES

@<TRIPOS>ATOM
      1 PG         -5.3760   -3.8699    2.6509 P.3       1 ACP         1.3755
      2 O1G        -4.8656   -2.9001    1.6108 O.co2     1 ACP        -0.8970
      3 O2G        -4.8080   -3.9195    4.0506 O.co2     1 ACP        -0.8970
      4 O3G        -7.0020   -3.7723    2.7311 O.3       1 ACP        -0.7959
      5 PB         -3.6463   -6.3235    1.4006 P.3       1 ACP         1.5194
      6 O1B        -3.0762   -5.4413    0.3145 O.co2     1 ACP        -0.8958
      7 O2B        -3.8936   -7.7997    1.1907 O.co2     1 ACP        -0.8958
      8 C3B        -5.2445   -5.5704    1.9416 C.3       1 ACP        -0.5612
      9 PA         -1.2314   -6.3276    3.1254 P.3       1 ACP         1.6019
     10 O1A        -0.8495   -7.7340    2.7182 O.co2     1 ACP        -0.9040
     11 O2A        -0.9696   -5.8343    4.5320 O.co2     1 ACP        -0.9040
     12 O3A        -2.8126   -6.1031    2.7842 O.3       1 ACP        -0.8156
     13 O5'        -0.5697   -5.2855    2.0524 O.3       1 ACP        -0.5465
     14 C5'        -0.7840   -3.8935    2.2172 C.3       1 ACP         0.2108
     15 C4'        -0.0724   -3.1466    1.1027 C.3       1 ACP         0.0552
     16 O4'        -0.8674   -3.1929   -0.0945 O.3       1 ACP        -0.3428
     17 C3'         0.1338   -1.6715    1.4027 C.3       1 ACP         0.0750
     18 O3'         1.2893   -1.4445    2.1808 O.3       1 ACP        -0.6066
     19 C2'         0.2158   -1.0724    0.0128 C.3       1 ACP         0.1185
     20 O2'         1.5141   -1.2448   -0.5513 O.3       1 ACP        -0.5858
     21 C1'        -0.7897   -1.9176   -0.7583 C.3       1 ACP         0.3826
     22 N9         -2.1040   -1.3333   -0.7704 N.pl3     1 ACP        -0.5729
     23 C8         -2.8739   -1.0133    0.2593 C.ar      1 ACP         0.3288
     24 N7         -4.0439   -0.4818   -0.0902 N.pl3     1 ACP        -0.5338
     25 C5         -4.0184   -0.4615   -1.4414 C.ar      1 ACP        -0.2581
     26 C6         -4.9120   -0.0399   -2.3814 C.ar      1 ACP         0.7413
     27 N6         -6.1459    0.5018   -1.9665 N.pl3     1 ACP        -0.9512
     28 N1         -4.6250   -0.1374   -3.6981 N.ar      1 ACP        -0.7699
     29 C2         -3.4114   -0.6729   -4.0088 C.ar      1 ACP         0.6898
     30 N3         -2.4579   -1.1190   -3.1595 N.ar      1 ACP        -0.6800
     31 C4         -2.8124   -0.9904   -1.8776 C.ar      1 ACP         0.6129
     32 HOG3       -7.4077   -2.9117    2.9696 H         1 ACP         0.4199
     33 H3B1       -5.9072   -5.5871    1.0692 H         1 ACP         0.0672
     34 H3B2       -5.6667   -6.2539    2.6866 H         1 ACP         0.0672
     35 H5'1       -1.8599   -3.6946    2.1849 H         1 ACP         0.0277
     36 H5'2       -0.3934   -3.5881    3.1930 H         1 ACP         0.0277
     37 H4'         0.8886   -3.6447    0.8779 H         1 ACP         0.1249
     38 H3'        -0.7373   -1.2359    1.9870 H         1 ACP         0.0564
     39 HO3'        1.3408   -0.4870    2.3219 H         1 ACP         0.4511
     40 H2'        -0.0384   -0.0310    0.0096 H         1 ACP         0.0716
     41 HO2'        2.1463   -0.7958    0.0370 H         1 ACP         0.4454
     42 H1'        -0.4769   -2.1002   -1.8093 H         1 ACP         0.1310
     43 H8         -2.5891   -1.1636    1.2862 H         1 ACP         0.3565
     44 HN61       -6.3657    0.5248   -0.9911 H         1 ACP         0.4414
     45 HN62       -6.8193    0.7669   -2.6568 H         1 ACP         0.4414
     46 H2         -3.1848   -0.7497   -5.0660 H         1 ACP         0.0676
     47 H47        -4.7768   -0.1684    0.5309 H         1 ACP         0.5052
@<TRIPOS>BOND
     1    1    2 2
     2    1    3 1
     3    1    4 1
     4    1    8 1
     5    4   32 1
     6    5    6 2
     7    5    7 1
     8    5    8 1
     9    5   12 1
    10    8   33 1
    11    8   34 1
    12    9   10 2
    13    9   11 1
    14    9   12 1
    15    9   13 1
    16   13   14 1
    17   14   15 1
    18   14   35 1
    19   14   36 1
    20   15   16 1
    21   15   17 1
    22   15   37 1
    23   16   21 1
    24   17   18 1
    25   17   19 1
    26   17   38 1
    27   18   39 1
    28   19   20 1
    29   19   21 1
    30   19   40 1
    31   20   41 1
    32   21   22 1
    33   21   42 1
    34   22   23 ar
    35   22   31 ar
    36   23   24 ar
    37   23   43 1
    38   24   25 ar
    39   24   47 1
    40   25   26 ar
    41   25   31 ar
    42   26   27 1
    43   26   28 ar
    44   27   44 1
    45   27   45 1
    46   28   29 ar
    47   29   30 ar
    48   29   46 1
    49   30   31 ar
@<TRIPOS>SUBSTRUCTURE
     1 ACP         1 GROUP 0 A     ****
@<TRIPOS>MOLECULE
[[5-(6-amino-7,8-dihydropurin-8-ylium-9-yl)-3,4-dihydroxy-tetrahydrofuran-2-yl]methoxy-oxido-phosphoryl]oxy-[[hydroxy(oxido)phosphoryl]methyl]phosphinate
   47    49     1     0     0
SMALL
USER_CHARGES

@<TRIPOS>ATOM
      1 PG          0.2616   -4.5300    6.6642 P.3       1 ACP         1.3755
      2 O1G         1.3865   -4.3388    5.6739 O.co2     1 ACP        -0.8970
      3 O2G         0.4670   -4.3744    8.1534 O.co2     1 ACP        -0.8970
      4 O3G        -1.0252   -3.6416    6.2008 O.3       1 ACP        -0.7959
      5 PB         -1.2038   -6.7322    4.7725 P.3       1 ACP         1.5194
      6 O1B        -2.3585   -5.8005    4.4875 O.co2     1 ACP        -0.8958
      7 O2B        -1.3753   -8.2329    4.8251 O.co2     1 ACP        -0.8958
      8 C3B        -0.4551   -6.2084    6.3785 C.3       1 ACP        -0.5612
      9 PA          0.1815   -6.3463    2.1767 P.3       1 ACP         1.6019
     10 O1A        -0.2700   -7.6906    1.6488 O.co2     1 ACP        -0.9040
     11 O2A         1.5393   -5.7893    1.8067 O.co2     1 ACP        -0.9040
     12 O3A         0.0550   -6.3623    3.8048 O.3       1 ACP        -0.8156
     13 O5'        -0.9728   -5.2427    1.8237 O.3       1 ACP        -0.5465
     14 C5'        -0.7840   -3.8935    2.2172 C.3       1 ACP         0.2108
     15 C4'        -0.0724   -3.1466    1.1027 C.3       1 ACP         0.0552
     16 O4'        -0.8674   -3.1929   -0.0945 O.3       1 ACP        -0.3428
     17 C3'         0.1338   -1.6715    1.4027 C.3       1 ACP         0.0750
     18 O3'         1.2893   -1.4445    2.1808 O.3       1 ACP        -0.6066
     19 C2'         0.2158   -1.0724    0.0128 C.3       1 ACP         0.1185
     20 O2'         1.5141   -1.2448   -0.5513 O.3       1 ACP        -0.5858
     21 C1'        -0.7897   -1.9176   -0.7583 C.3       1 ACP         0.3826
     22 N9         -2.1040   -1.3333   -0.7704 N.pl3     1 ACP        -0.5729
     23 C8         -3.0822   -1.4850    0.1102 C.ar      1 ACP         0.3288
     24 N7         -4.1844   -0.7999   -0.1888 N.pl3     1 ACP        -0.5338
     25 C5         -3.8875   -0.1651   -1.3445 C.ar      1 ACP        -0.2581
     26 C6         -4.5941    0.6799   -2.1486 C.ar      1 ACP         0.7413
     27 N6         -5.9138    1.0274   -1.7939 N.pl3     1 ACP        -0.9512
     28 N1         -4.0421    1.1824   -3.2748 N.ar      1 ACP        -0.7699
     29 C2         -2.7637    0.7937   -3.5405 C.ar      1 ACP         0.6898
     30 N3         -1.9788   -0.0343   -2.8139 N.ar      1 ACP        -0.6800
     31 C4         -2.5915   -0.4902   -1.7174 C.ar      1 ACP         0.6129
     32 HOG3       -0.9196   -2.6693    6.1253 H         1 ACP         0.4199
     33 H3B1       -1.2307   -6.3407    7.1410 H         1 ACP         0.0672
     34 H3B2        0.3413   -6.9297    6.5930 H         1 ACP         0.0672
     35 H5'1       -1.7614   -3.4427    2.4167 H         1 ACP         0.0277
     36 H5'2       -0.1870   -3.8723    3.1344 H         1 ACP         0.0277
     37 H4'         0.8886   -3.6447    0.8779 H         1 ACP         0.1249
     38 H3'        -0.7373   -1.2359    1.9870 H         1 ACP         0.0564
     39 HO3'        1.1626   -1.9325    3.0084 H         1 ACP         0.4511
     40 H2'        -0.0384   -0.0310    0.0096 H         1 ACP         0.0716
     41 HO2'        2.1463   -0.7958    0.0370 H         1 ACP         0.4454
     42 H1'        -0.4769   -2.1002   -1.8093 H         1 ACP         0.1310
     43 H8         -3.0031   -2.1011    0.9891 H         1 ACP         0.3565
     44 HN61       -6.3271    0.6117   -0.9836 H         1 ACP         0.4414
     45 HN62       -6.4471    1.6092   -2.4083 H         1 ACP         0.4414
     46 H2         -2.3243    1.1986   -4.4449 H         1 ACP         0.0676
     47 H47        -5.0436   -0.7722    0.3425 H         1 ACP         0.5052
@<TRIPOS>BOND
     1    1    2 2
     2    1    3 1
     3    1    4 1
     4    1    8 1
     5    4   32 1
     6    5    6 2
     7    5    7 1
     8    5    8 1
     9    5   12 1
    10    8   33 1
    11    8   34 1
    12    9   10 2
    13    9   11 1
    14    9   12 1
    15    9   13 1
    16   13   14 1
    17   14   15 1
    18   14   35 1
    19   14   36 1
    20   15   16 1
    21   15   17 1
    22   15   37 1
    23   16   21 1
    24   17   18 1
    25   17   19 1
    26   17   38 1
    27   18   39 1
    28   19   20 1
    29   19   21 1
    30   19   40 1
    31   20   41 1
    32   21   22 1
    33   21   42 1
    34   22   23 ar
    35   22   31 ar
    36   23   24 ar
    37   23   43 1
    38   24   25 ar
    39   24   47 1
    40   25   26 ar
    41   25   31 ar
    42   26   27 1
    43   26   28 ar
    44   27   44 1
    45   27   45 1
    46   28   29 ar
    47   29   30 ar
    48   29   46 1
    49   30   31 ar
@<TRIPOS>SUBSTRUCTURE
     1 ACP         1 GROUP 0 A     ****
@<TRIPOS>MOLECULE
[[5-(6-amino-7,8-dihydropurin-8-ylium-9-yl)-3,4-dihydroxy-tetrahydrofuran-2-yl]methoxy-oxido-phosphoryl]oxy-[[hydroxy(oxido)phosphoryl]methyl]phosphinate
   47    49     1     0     0
SMALL
USER_CHARGES

@<TRIPOS>ATOM
      1 PG          2.5036   -4.5470   -4.1846 P.3       1 ACP         1.3755
      2 O1G         1.3997   -5.3738   -4.8015 O.co2     1 ACP        -0.8970
      3 O2G         2.2568   -3.6214   -3.0156 O.co2     1 ACP        -0.8970
      4 O3G         3.7793   -5.5074   -3.8531 O.3       1 ACP        -0.7959
      5 PB          4.6694   -2.3695   -5.2537 P.3       1 ACP         1.5194
      6 O1B         5.0078   -1.7452   -6.5873 O.co2     1 ACP        -0.8958
      7 O2B         5.7012   -3.0930   -4.4193 O.co2     1 ACP        -0.8958
      8 C3B         3.2685   -3.5416   -5.5324 C.3       1 ACP        -0.5612
      9 PA          4.4357   -0.0473   -3.4208 P.3       1 ACP         1.6019
     10 O1A         5.0077    1.0009   -4.3502 O.co2     1 ACP        -0.9040
     11 O2A         5.2684   -0.6124   -2.2904 O.co2     1 ACP        -0.9040
     12 O3A         3.8786   -1.2888   -4.3238 O.3       1 ACP        -0.8156
     13 O5'         3.0198    0.5138   -2.8245 O.3       1 ACP        -0.5465
     14 C5'         2.2816   -0.2918   -1.9206 C.3       1 ACP         0.2108
     15 C4'         2.7248    0.0226   -0.4980 C.3       1 ACP         0.0552
     16 O4'         2.4697    1.4219   -0.2462 O.3       1 ACP        -0.3428
     17 C3'         1.9404   -0.7419    0.5596 C.3       1 ACP         0.0750
     18 O3'         2.7418   -0.8086    1.7389 O.3       1 ACP        -0.6066
     19 C2'         0.7477    0.1630    0.7858 C.3       1 ACP         0.1185
     20 O2'         0.1373   -0.0577    2.0407 O.3       1 ACP        -0.5858
     21 C1'         1.3733    1.5427    0.6747 C.3       1 ACP         0.3826
     22 N9          0.4520    2.5240    0.1767 N.pl3     1 ACP        -0.5729
     23 C8         -0.2172    2.5216   -0.9668 C.ar      1 ACP         0.3288
     24 N7         -1.0011    3.5855   -1.1321 N.pl3     1 ACP        -0.5338
     25 C5         -0.8184    4.3200   -0.0123 C.ar      1 ACP        -0.2581
     26 C6         -1.3349    5.5079    0.4144 C.ar      1 ACP         0.7413
     27 N6         -2.2567    6.1930   -0.4036 N.pl3     1 ACP        -0.9512
     28 N1         -0.9716    6.0291    1.6069 N.ar      1 ACP        -0.7699
     29 C2         -0.0765    5.3009    2.3312 C.ar      1 ACP         0.6898
     30 N3          0.4933    4.1191    2.0023 N.ar      1 ACP        -0.6800
     31 C4          0.0865    3.6675    0.8123 C.ar      1 ACP         0.6129
     32 HOG3        3.6516   -6.2577   -3.2342 H         1 ACP         0.4199
     33 H3B1        2.4546   -2.9545   -5.9719 H         1 ACP         0.0672
     34 H3B2        3.6107   -4.2495   -6.2954 H         1 ACP         0.0672
     35 H5'1        1.2153   -0.0781   -2.0454 H         1 ACP         0.0277
     36 H5'2        2.4645   -1.3454   -2.1547 H         1 ACP         0.0277
     37 H4'         3.8050   -0.1388   -0.4008 H         1 ACP         0.1249
     38 H3'         1.6784   -1.7629    0.2714 H         1 ACP         0.0564
     39 HO3'        2.2232   -1.2979    2.3953 H         1 ACP         0.4511
     40 H2'        -0.0011    0.0027    0.0003 H         1 ACP         0.0716
     41 HO2'       -0.6141    0.5574    2.1082 H         1 ACP         0.4454
     42 H1'         1.7826    1.9024    1.6451 H         1 ACP         0.1310
     43 H8         -0.1423    1.7373   -1.6999 H         1 ACP         0.3565
     44 HN61       -2.4811    5.8206   -1.3042 H         1 ACP         0.4414
     45 HN62       -2.5986    7.0863   -0.1113 H         1 ACP         0.4414
     46 H2          0.2128    5.7222    3.2871 H         1 ACP         0.0676
     47 H47        -1.5947    3.7835   -1.9255 H         1 ACP         0.5052
@<TRIPOS>BOND
     1    1    2 2
     2    1    3 1
     3    1    4 1
     4    1    8 1
     5    4   32 1
     6    5    6 2
     7    5    7 1
     8    5    8 1
     9    5   12 1
    10    8   33 1
    11    8   34 1
    12    9   10 2
    13    9   11 1
    14    9   12 1
    15    9   13 1
    16   13   14 1
    17   14   15 1
    18   14   35 1
    19   14   36 1
    20   15   16 1
    21   15   17 1
    22   15   37 1
    23   16   21 1
    24   17   18 1
    25   17   19 1
    26   17   38 1
    27   18   39 1
    28   19   20 1
    29   19   21 1
    30   19   40 1
    31   20   41 1
    32   21   22 1
    33   21   42 1
    34   22   23 ar
    35   22   31 ar
    36   23   24 ar
    37   23   43 1
    38   24   25 ar
    39   24   47 1
    40   25   26 ar
    41   25   31 ar
    42   26   27 1
    43   26   28 ar
    44   27   44 1
    45   27   45 1
    46   28   29 ar
    47   29   30 ar
    48   29   46 1
    49   30   31 ar
@<TRIPOS>SUBSTRUCTURE
     1 ACP         1 GROUP 0 A     ****
@<TRIPOS>MOLECULE
[[5-(6-amino-7,8-dihydropurin-8-ylium-9-yl)-3,4-dihydroxy-tetrahydrofuran-2-yl]methoxy-oxido-phosphoryl]oxy-[[hydroxy(oxido)phosphoryl]methyl]phosphinate
   47    49     1     0     0
SMALL
USER_CHARGES

@<TRIPOS>ATOM
      1 PG          2.6472   -4.9361   -2.0406 P.3       1 ACP         1.3755
      2 O1G         3.3903   -3.7918   -2.6896 O.co2     1 ACP        -0.8970
      3 O2G         1.1456   -4.9252   -1.8701 O.co2     1 ACP        -0.8970
      4 O3G         3.1017   -6.3403   -2.7347 O.3       1 ACP        -0.7959
      5 PB          2.8042   -6.5145    0.7983 P.3       1 ACP         1.5194
      6 O1B         3.6552   -6.4198    2.0431 O.co2     1 ACP        -0.8958
      7 O2B         2.6713   -7.7974    0.0104 O.co2     1 ACP        -0.8958
      8 C3B         3.3900   -5.2098   -0.3716 C.3       1 ACP        -0.5612
      9 PA          0.1815   -6.3463    2.1767 P.3       1 ACP         1.6019
     10 O1A         0.7035   -6.0587    3.5676 O.co2     1 ACP        -0.9040
     11 O2A        -0.3152   -7.7280    1.8101 O.co2     1 ACP        -0.9040
     12 O3A         1.3224   -5.9029    1.0956 O.3       1 ACP        -0.8156
     13 O5'        -0.9728   -5.2427    1.8237 O.3       1 ACP        -0.5465
     14 C5'        -0.7840   -3.8935    2.2172 C.3       1 ACP         0.2108
     15 C4'        -0.0724   -3.1466    1.1027 C.3       1 ACP         0.0552
     16 O4'        -0.8674   -3.1929   -0.0945 O.3       1 ACP        -0.3428
     17 C3'         0.1338   -1.6715    1.4027 C.3       1 ACP         0.0750
     18 O3'         1.2893   -1.4445    2.1808 O.3       1 ACP        -0.6066
     19 C2'         0.2158   -1.0724    0.0128 C.3       1 ACP         0.1185
     20 O2'         1.5141   -1.2448   -0.5513 O.3       1 ACP        -0.5858
     21 C1'        -0.7897   -1.9176   -0.7583 C.3       1 ACP         0.3826
     22 N9         -2.1040   -1.3333   -0.7704 N.pl3     1 ACP        -0.5729
     23 C8         -3.0822   -1.4850    0.1102 C.ar      1 ACP         0.3288
     24 N7         -4.1844   -0.7999   -0.1888 N.pl3     1 ACP        -0.5338
     25 C5         -3.8875   -0.1651   -1.3445 C.ar      1 ACP        -0.2581
     26 C6         -4.5941    0.6799   -2.1486 C.ar      1 ACP         0.7413
     27 N6         -5.9138    1.0274   -1.7939 N.pl3     1 ACP        -0.9512
     28 N1         -4.0421    1.1824   -3.2748 N.ar      1 ACP        -0.7699
     29 C2         -2.7637    0.7937   -3.5405 C.ar      1 ACP         0.6898
     30 N3         -1.9788   -0.0343   -2.8139 N.ar      1 ACP        -0.6800
     31 C4         -2.5915   -0.4902   -1.7174 C.ar      1 ACP         0.6129
     32 HOG3        2.9512   -6.4567   -3.6970 H         1 ACP         0.4199
     33 H3B1        3.3038   -4.2550    0.1589 H         1 ACP         0.0672
     34 H3B2        4.4571   -5.4004   -0.5312 H         1 ACP         0.0672
     35 H5'1       -1.7614   -3.4427    2.4167 H         1 ACP         0.0277
     36 H5'2       -0.1870   -3.8723    3.1344 H         1 ACP         0.0277
     37 H4'         0.8886   -3.6447    0.8779 H         1 ACP         0.1249
     38 H3'        -0.7373   -1.2359    1.9870 H         1 ACP         0.0564
     39 HO3'        1.3408   -0.4870    2.3219 H         1 ACP         0.4511
     40 H2'        -0.0384   -0.0310    0.0096 H         1 ACP         0.0716
     41 HO2'        2.1463   -0.7958    0.0370 H         1 ACP         0.4454
     42 H1'        -0.4769   -2.1002   -1.8093 H         1 ACP         0.1310
     43 H8         -3.0031   -2.1011    0.9891 H         1 ACP         0.3565
     44 HN61       -6.3271    0.6117   -0.9836 H         1 ACP         0.4414
     45 HN62       -6.4471    1.6092   -2.4083 H         1 ACP         0.4414
     46 H2         -2.3243    1.1986   -4.4449 H         1 ACP         0.0676
     47 H47        -5.0436   -0.7722    0.3425 H         1 ACP         0.5052
@<TRIPOS>BOND
     1    1    2 2
     2    1    3 1
     3    1    4 1
     4    1    8 1
     5    4   32 1
     6    5    6 2
     7    5    7 1
     8    5    8 1
     9    5   12 1
    10    8   33 1
    11    8   34 1
    12    9   10 2
    13    9   11 1
    14    9   12 1
    15    9   13 1
    16   13   14 1
    17   14   15 1
    18   14   35 1
    19   14   36 1
    20   15   16 1
    21   15   17 1
    22   15   37 1
    23   16   21 1
    24   17   18 1
    25   17   19 1
    26   17   38 1
    27   18   39 1
    28   19   20 1
    29   19   21 1
    30   19   40 1
    31   20   41 1
    32   21   22 1
    33   21   42 1
    34   22   23 ar
    35   22   31 ar
    36   23   24 ar
    37   23   43 1
    38   24   25 ar
    39   24   47 1
    40   25   26 ar
    41   25   31 ar
    42   26   27 1
    43   26   28 ar
    44   27   44 1
    45   27   45 1
    46   28   29 ar
    47   29   30 ar
    48   29   46 1
    49   30   31 ar
@<TRIPOS>SUBSTRUCTURE
     1 ACP         1 GROUP 0 A     ****
@<TRIPOS>MOLECULE
[[5-(6-amino-7,8-dihydropurin-8-ylium-9-yl)-3,4-dihydroxy-tetrahydrofuran-2-yl]methoxy-oxido-phosphoryl]oxy-[[hydroxy(oxido)phosphoryl]methyl]phosphinate
   47    49     1     0     0
SMALL
USER_CHARGES

@<TRIPOS>ATOM
      1 PG          4.3417   -5.0192    1.0827 P.3       1 ACP         1.3755
      2 O1G         5.3898   -4.9659    2.1697 O.co2     1 ACP        -0.8970
      3 O2G         3.3143   -3.9255    0.9029 O.co2     1 ACP        -0.8970
      4 O3G         5.0608   -5.3252   -0.3488 O.3       1 ACP        -0.7959
      5 PB          2.4865   -7.0718    2.7916 P.3       1 ACP         1.5194
      6 O1B         3.4699   -7.0933    3.9384 O.co2     1 ACP        -0.8958
      7 O2B         1.6269   -8.2661    2.4465 O.co2     1 ACP        -0.8958
      8 C3B         3.4251   -6.6122    1.2678 C.3       1 ACP        -0.5612
      9 PA          0.5333   -5.2357    4.0646 P.3       1 ACP         1.6019
     10 O1A         1.3496   -4.8932    5.2918 O.co2     1 ACP        -0.9040
     11 O2A        -0.6180   -6.2140    4.1530 O.co2     1 ACP        -0.9040
     12 O3A         1.5517   -5.7398    2.8917 O.3       1 ACP        -0.8156
     13 O5'         0.0099   -3.8403    3.3910 O.3       1 ACP        -0.5465
     14 C5'        -0.7840   -3.8935    2.2172 C.3       1 ACP         0.2108
     15 C4'        -0.0724   -3.1466    1.1027 C.3       1 ACP         0.0552
     16 O4'        -0.8674   -3.1929   -0.0945 O.3       1 ACP        -0.3428
     17 C3'         0.1338   -1.6715    1.4027 C.3       1 ACP         0.0750
     18 O3'         1.2893   -1.4445    2.1808 O.3       1 ACP        -0.6066
     19 C2'         0.2158   -1.0724    0.0128 C.3       1 ACP         0.1185
     20 O2'         1.5141   -1.2448   -0.5513 O.3       1 ACP        -0.5858
     21 C1'        -0.7897   -1.9176   -0.7583 C.3       1 ACP         0.3826
     22 N9         -2.1040   -1.3333   -0.7704 N.pl3     1 ACP        -0.5729
     23 C8         -3.0822   -1.4850    0.1102 C.ar      1 ACP         0.3288
     24 N7         -4.1844   -0.7999   -0.1888 N.pl3     1 ACP        -0.5338
     25 C5         -3.8875   -0.1651   -1.3445 C.ar      1 ACP        -0.2581
     26 C6         -4.5941    0.6799   -2.1486 C.ar      1 ACP         0.7413
     27 N6         -5.9138    1.0274   -1.7939 N.pl3     1 ACP        -0.9512
     28 N1         -4.0421    1.1824   -3.2748 N.ar      1 ACP        -0.7699
     29 C2         -2.7637    0.7937   -3.5405 C.ar      1 ACP         0.6898
     30 N3         -1.9788   -0.0343   -2.8139 N.ar      1 ACP        -0.6800
     31 C4         -2.5915   -0.4902   -1.7174 C.ar      1 ACP         0.6129
     32 HOG3        5.7334   -4.6922   -0.6792 H         1 ACP         0.4199
     33 H3B1        4.1620   -7.4066    1.1050 H         1 ACP         0.0672
     34 H3B2        2.7066   -6.6579    0.4419 H         1 ACP         0.0672
     35 H5'1       -0.9358   -4.9414    1.9395 H         1 ACP         0.0277
     36 H5'2       -1.7558   -3.4349    2.4258 H         1 ACP         0.0277
     37 H4'         0.8886   -3.6447    0.8779 H         1 ACP         0.1249
     38 H3'        -0.7373   -1.2359    1.9870 H         1 ACP         0.0564
     39 HO3'        1.1626   -1.9325    3.0084 H         1 ACP         0.4511
     40 H2'        -0.0384   -0.0310    0.0096 H         1 ACP         0.0716
     41 HO2'        2.1463   -0.7958    0.0370 H         1 ACP         0.4454
     42 H1'        -0.4769   -2.1002   -1.8093 H         1 ACP         0.1310
     43 H8         -3.0031   -2.1011    0.9891 H         1 ACP         0.3565
     44 HN61       -6.3271    0.6117   -0.9836 H         1 ACP         0.4414
     45 HN62       -6.4471    1.6092   -2.4083 H         1 ACP         0.4414
     46 H2         -2.3243    1.1986   -4.4449 H         1 ACP         0.0676
     47 H47        -5.0436   -0.7722    0.3425 H         1 ACP         0.5052
@<TRIPOS>BOND
     1    1    2 2
     2    1    3 1
     3    1    4 1
     4    1    8 1
     5    4   32 1
     6    5    6 2
     7    5    7 1
     8    5    8 1
     9    5   12 1
    10    8   33 1
    11    8   34 1
    12    9   10 2
    13    9   11 1
    14    9   12 1
    15    9   13 1
    16   13   14 1
    17   14   15 1
    18   14   35 1
    19   14   36 1
    20   15   16 1
    21   15   17 1
    22   15   37 1
    23   16   21 1
    24   17   18 1
    25   17   19 1
    26   17   38 1
    27   18   39 1
    28   19   20 1
    29   19   21 1
    30   19   40 1
    31   20   41 1
    32   21   22 1
    33   21   42 1
    34   22   23 ar
    35   22   31 ar
    36   23   24 ar
    37   23   43 1
    38   24   25 ar
    39   24   47 1
    40   25   26 ar
    41   25   31 ar
    42   26   27 1
    43   26   28 ar
    44   27   44 1
    45   27   45 1
    46   28   29 ar
    47   29   30 ar
    48   29   46 1
    49   30   31 ar
@<TRIPOS>SUBSTRUCTURE
     1 ACP         1 GROUP 0 A     ****
@<TRIPOS>MOLECULE
[[5-(6-amino-7,8-dihydropurin-8-ylium-9-yl)-3,4-dihydroxy-tetrahydrofuran-2-yl]methoxy-oxido-phosphoryl]oxy-[[hydroxy(oxido)phosphoryl]methyl]phosphinate
   47    49     1     0     0
SMALL
USER_CHARGES

@<TRIPOS>ATOM
      1 PG         -1.3906    1.1599    4.4722 P.3       1 ACP         1.3755
      2 O1G        -2.1134    2.2352    3.6950 O.co2     1 ACP        -0.8970
      3 O2G        -0.2249    0.3939    3.8904 O.co2     1 ACP        -0.8970
      4 O3G        -0.9785    1.7371    5.9408 O.3       1 ACP        -0.7959
      5 PB         -2.2313   -1.5836    6.0024 P.3       1 ACP         1.5194
      6 O1B        -3.5187   -2.3366    6.2443 O.co2     1 ACP        -0.8958
      7 O2B        -1.3325   -1.1427    7.1347 O.co2     1 ACP        -0.8958
      8 C3B        -2.6490   -0.0788    5.0150 C.3       1 ACP        -0.5612
      9 PA         -0.7235   -3.8665    4.8526 P.3       1 ACP         1.6019
     10 O1A        -1.8689   -4.8534    4.7912 O.co2     1 ACP        -0.9040
     11 O2A         0.3249   -3.9688    5.9393 O.co2     1 ACP        -0.9040
     12 O3A        -1.3445   -2.3562    4.8734 O.3       1 ACP        -0.8156
     13 O5'         0.0099   -3.8403    3.3910 O.3       1 ACP        -0.5465
     14 C5'        -0.7840   -3.8935    2.2172 C.3       1 ACP         0.2108
     15 C4'        -0.0724   -3.1466    1.1027 C.3       1 ACP         0.0552
     16 O4'        -0.8674   -3.1929   -0.0945 O.3       1 ACP        -0.3428
     17 C3'         0.1338   -1.6715    1.4027 C.3       1 ACP         0.0750
     18 O3'         1.2893   -1.4445    2.1808 O.3       1 ACP        -0.6066
     19 C2'         0.2158   -1.0724    0.0128 C.3       1 ACP         0.1185
     20 O2'         1.5141   -1.2448   -0.5513 O.3       1 ACP        -0.5858
     21 C1'        -0.7897   -1.9176   -0.7583 C.3       1 ACP         0.3826
     22 N9         -2.1040   -1.3333   -0.7704 N.pl3     1 ACP        -0.5729
     23 C8         -3.2304   -1.8262   -0.2767 C.ar      1 ACP         0.3288
     24 N7         -4.2847   -1.0309   -0.4481 N.pl3     1 ACP        -0.5338
     25 C5         -3.7951    0.0479   -1.0985 C.ar      1 ACP        -0.2581
     26 C6         -4.3691    1.1983   -1.5536 C.ar      1 ACP         0.7413
     27 N6         -5.7501    1.4047   -1.3573 N.pl3     1 ACP        -0.9512
     28 N1         -3.6289    2.1345   -2.1869 N.ar      1 ACP        -0.7699
     29 C2         -2.3041    1.8525   -2.3333 C.ar      1 ACP         0.6898
     30 N3         -1.6387    0.7492   -1.9218 N.ar      1 ACP        -0.6800
     31 C4         -2.4348   -0.1293   -1.3053 C.ar      1 ACP         0.6129
     32 HOG3       -0.3890    2.5198    5.9873 H         1 ACP         0.4199
     33 H3B1       -3.1397   -0.4326    4.1015 H         1 ACP         0.0672
     34 H3B2       -3.3975    0.4698    5.5974 H         1 ACP         0.0672
     35 H5'1       -0.9358   -4.9414    1.9395 H         1 ACP         0.0277
     36 H5'2       -1.7558   -3.4349    2.4258 H         1 ACP         0.0277
     37 H4'         0.8886   -3.6447    0.8779 H         1 ACP         0.1249
     38 H3'        -0.7373   -1.2359    1.9870 H         1 ACP         0.0564
     39 HO3'        1.1626   -1.9325    3.0084 H         1 ACP         0.4511
     40 H2'        -0.0384   -0.0310    0.0096 H         1 ACP         0.0716
     41 HO2'        2.1463   -0.7958    0.0370 H         1 ACP         0.4454
     42 H1'        -0.4769   -2.1002   -1.8093 H         1 ACP         0.1310
     43 H8         -3.2974   -2.7789    0.2194 H         1 ACP         0.3565
     44 HN61       -6.2956    0.6838   -0.9296 H         1 ACP         0.4414
     45 HN62       -6.1788    2.2266   -1.7327 H         1 ACP         0.4414
     46 H2         -1.7135    2.6057   -2.8421 H         1 ACP         0.0676
     47 H47        -5.2337   -1.2102   -0.1507 H         1 ACP         0.5052
@<TRIPOS>BOND
     1    1    2 2
     2    1    3 1
     3    1    4 1
     4    1    8 1
     5    4   32 1
     6    5    6 2
     7    5    7 1
     8    5    8 1
     9    5   12 1
    10    8   33 1
    11    8   34 1
    12    9   10 2
    13    9   11 1
    14    9   12 1
    15    9   13 1
    16   13   14 1
    17   14   15 1
    18   14   35 1
    19   14   36 1
    20   15   16 1
    21   15   17 1
    22   15   37 1
    23   16   21 1
    24   17   18 1
    25   17   19 1
    26   17   38 1
    27   18   39 1
    28   19   20 1
    29   19   21 1
    30   19   40 1
    31   20   41 1
    32   21   22 1
    33   21   42 1
    34   22   23 ar
    35   22   31 ar
    36   23   24 ar
    37   23   43 1
    38   24   25 ar
    39   24   47 1
    40   25   26 ar
    41   25   31 ar
    42   26   27 1
    43   26   28 ar
    44   27   44 1
    45   27   45 1
    46   28   29 ar
    47   29   30 ar
    48   29   46 1
    49   30   31 ar
@<TRIPOS>SUBSTRUCTURE
     1 ACP         1 GROUP 0 A     ****
@<TRIPOS>MOLECULE
[[5-(6-amino-7,8-dihydropurin-8-ylium-9-yl)-3,4-dihydroxy-tetrahydrofuran-2-yl]methoxy-oxido-phosphoryl]oxy-[[hydroxy(oxido)phosphoryl]methyl]phosphinate
   47    49     1     0     0
SMALL
USER_CHARGES

@<TRIPOS>ATOM
      1 PG         -2.0259   -7.8082    7.1645 P.3       1 ACP         1.3755
      2 O1G        -2.1873   -7.4738    8.6291 O.co2     1 ACP        -0.8970
      3 O2G        -0.6790   -8.1248    6.5563 O.co2     1 ACP        -0.8970
      4 O3G        -3.0910   -8.9730    6.7541 O.3       1 ACP        -0.7959
      5 PB         -2.7936   -6.3845    4.3434 P.3       1 ACP         1.5194
      6 O1B        -3.4686   -5.0978    3.9293 O.co2     1 ACP        -0.8958
      7 O2B        -3.2838   -7.7361    3.8772 O.co2     1 ACP        -0.8958
      8 C3B        -2.7586   -6.4202    6.1904 C.3       1 ACP        -0.5612
      9 PA         -0.3084   -6.4368    2.7224 P.3       1 ACP         1.6019
     10 O1A        -0.6613   -7.7629    2.0847 O.co2     1 ACP        -0.9040
     11 O2A         1.1316   -6.0899    3.0334 O.co2     1 ACP        -0.9040
     12 O3A        -1.1872   -6.2712    4.0888 O.3       1 ACP        -0.8156
     13 O5'        -0.9728   -5.2427    1.8237 O.3       1 ACP        -0.5465
     14 C5'        -0.7840   -3.8935    2.2172 C.3       1 ACP         0.2108
     15 C4'        -0.0724   -3.1466    1.1027 C.3       1 ACP         0.0552
     16 O4'        -0.8674   -3.1929   -0.0945 O.3       1 ACP        -0.3428
     17 C3'         0.1338   -1.6715    1.4027 C.3       1 ACP         0.0750
     18 O3'         1.2893   -1.4445    2.1808 O.3       1 ACP        -0.6066
     19 C2'         0.2158   -1.0724    0.0128 C.3       1 ACP         0.1185
     20 O2'         1.5141   -1.2448   -0.5513 O.3       1 ACP        -0.5858
     21 C1'        -0.7897   -1.9176   -0.7583 C.3       1 ACP         0.3826
     22 N9         -2.1040   -1.3333   -0.7704 N.pl3     1 ACP        -0.5729
     23 C8         -3.0822   -1.4850    0.1102 C.ar      1 ACP         0.3288
     24 N7         -4.1844   -0.7999   -0.1888 N.pl3     1 ACP        -0.5338
     25 C5         -3.8875   -0.1651   -1.3445 C.ar      1 ACP        -0.2581
     26 C6         -4.5941    0.6799   -2.1486 C.ar      1 ACP         0.7413
     27 N6         -5.9138    1.0274   -1.7939 N.pl3     1 ACP        -0.9512
     28 N1         -4.0421    1.1824   -3.2748 N.ar      1 ACP        -0.7699
     29 C2         -2.7637    0.7937   -3.5405 C.ar      1 ACP         0.6898
     30 N3         -1.9788   -0.0343   -2.8139 N.ar      1 ACP        -0.6800
     31 C4         -2.5915   -0.4902   -1.7174 C.ar      1 ACP         0.6129
     32 HOG3       -3.0404   -9.8369    7.2160 H         1 ACP         0.4199
     33 H3B1       -2.2307   -5.5145    6.5090 H         1 ACP         0.0672
     34 H3B2       -3.8001   -6.3242    6.5168 H         1 ACP         0.0672
     35 H5'1       -1.7614   -3.4427    2.4167 H         1 ACP         0.0277
     36 H5'2       -0.1870   -3.8723    3.1344 H         1 ACP         0.0277
     37 H4'         0.8886   -3.6447    0.8779 H         1 ACP         0.1249
     38 H3'        -0.7373   -1.2359    1.9870 H         1 ACP         0.0564
     39 HO3'        1.3408   -0.4870    2.3219 H         1 ACP         0.4511
     40 H2'        -0.0384   -0.0310    0.0096 H         1 ACP         0.0716
     41 HO2'        1.4998   -0.8412   -1.4369 H         1 ACP         0.4454
     42 H1'        -0.4769   -2.1002   -1.8093 H         1 ACP         0.1310
     43 H8         -3.0031   -2.1011    0.9891 H         1 ACP         0.3565
     44 HN61       -6.3271    0.6117   -0.9836 H         1 ACP         0.4414
     45 HN62       -6.4471    1.6092   -2.4083 H         1 ACP         0.4414
     46 H2         -2.3243    1.1986   -4.4449 H         1 ACP         0.0676
     47 H47        -5.0436   -0.7722    0.3425 H         1 ACP         0.5052
@<TRIPOS>BOND
     1    1    2 2
     2    1    3 1
     3    1    4 1
     4    1    8 1
     5    4   32 1
     6    5    6 2
     7    5    7 1
     8    5    8 1
     9    5   12 1
    10    8   33 1
    11    8   34 1
    12    9   10 2
    13    9   11 1
    14    9   12 1
    15    9   13 1
    16   13   14 1
    17   14   15 1
    18   14   35 1
    19   14   36 1
    20   15   16 1
    21   15   17 1
    22   15   37 1
    23   16   21 1
    24   17   18 1
    25   17   19 1
    26   17   38 1
    27   18   39 1
    28   19   20 1
    29   19   21 1
    30   19   40 1
    31   20   41 1
    32   21   22 1
    33   21   42 1
    34   22   23 ar
    35   22   31 ar
    36   23   24 ar
    37   23   43 1
    38   24   25 ar
    39   24   47 1
    40   25   26 ar
    41   25   31 ar
    42   26   27 1
    43   26   28 ar
    44   27   44 1
    45   27   45 1
    46   28   29 ar
    47   29   30 ar
    48   29   46 1
    49   30   31 ar
@<TRIPOS>SUBSTRUCTURE
     1 ACP         1 GROUP 0 A     ****
@<TRIPOS>MOLECULE
[[5-(6-amino-7,8-dihydropurin-8-ylium-9-yl)-3,4-dihydroxy-tetrahydrofuran-2-yl]methoxy-oxido-phosphoryl]oxy-[[hydroxy(oxido)phosphoryl]methyl]phosphinate
   47    49     1     0     0
SMALL
USER_CHARGES

@<TRIPOS>ATOM
      1 PG         -3.2860   -8.5413    1.5757 P.3       1 ACP         1.3755
      2 O1G        -3.9291   -9.9002    1.7263 O.co2     1 ACP        -0.8970
      3 O2G        -2.1916   -8.0632    2.5019 O.co2     1 ACP        -0.8970
      4 O3G        -2.8131   -8.3341    0.0287 O.3       1 ACP        -0.7959
      5 PB         -4.3263   -5.4622    1.4650 P.3       1 ACP         1.5194
      6 O1B        -5.6669   -4.7698    1.5422 O.co2     1 ACP        -0.8958
      7 O2B        -3.3828   -5.2609    0.3015 O.co2     1 ACP        -0.8958
      8 C3B        -4.6332   -7.2781    1.6152 C.3       1 ACP        -0.5612
      9 PA         -3.0181   -3.8920    3.6167 P.3       1 ACP         1.6019
     10 O1A        -2.1616   -4.2860    4.8002 O.co2     1 ACP        -0.9040
     11 O2A        -4.2124   -2.9804    3.7989 O.co2     1 ACP        -0.9040
     12 O3A        -3.5163   -5.2531    2.8644 O.3       1 ACP        -0.8156
     13 O5'        -2.0403   -3.2809    2.4568 O.3       1 ACP        -0.5465
     14 C5'        -0.7840   -3.8935    2.2172 C.3       1 ACP         0.2108
     15 C4'        -0.0724   -3.1466    1.1027 C.3       1 ACP         0.0552
     16 O4'        -0.8674   -3.1929   -0.0945 O.3       1 ACP        -0.3428
     17 C3'         0.1338   -1.6715    1.4027 C.3       1 ACP         0.0750
     18 O3'         1.2893   -1.4445    2.1808 O.3       1 ACP        -0.6066
     19 C2'         0.2158   -1.0724    0.0128 C.3       1 ACP         0.1185
     20 O2'         1.5141   -1.2448   -0.5513 O.3       1 ACP        -0.5858
     21 C1'        -0.7897   -1.9176   -0.7583 C.3       1 ACP         0.3826
     22 N9         -2.1040   -1.3333   -0.7704 N.pl3     1 ACP        -0.5729
     23 C8         -3.2304   -1.8262   -0.2767 C.ar      1 ACP         0.3288
     24 N7         -4.2847   -1.0309   -0.4481 N.pl3     1 ACP        -0.5338
     25 C5         -3.7951    0.0479   -1.0985 C.ar      1 ACP        -0.2581
     26 C6         -4.3691    1.1983   -1.5536 C.ar      1 ACP         0.7413
     27 N6         -5.7501    1.4047   -1.3573 N.pl3     1 ACP        -0.9512
     28 N1         -3.6289    2.1345   -2.1869 N.ar      1 ACP        -0.7699
     29 C2         -2.3041    1.8525   -2.3333 C.ar      1 ACP         0.6898
     30 N3         -1.6387    0.7492   -1.9218 N.ar      1 ACP        -0.6800
     31 C4         -2.4348   -0.1293   -1.3053 C.ar      1 ACP         0.6129
     32 HOG3       -2.1626   -8.9632   -0.3498 H         1 ACP         0.4199
     33 H3B1       -5.1606   -7.4268    2.5640 H         1 ACP         0.0672
     34 H3B2       -5.3291   -7.5372    0.8097 H         1 ACP         0.0672
     35 H5'1       -0.1929   -3.8610    3.1379 H         1 ACP         0.0277
     36 H5'2       -0.9476   -4.9382    1.9344 H         1 ACP         0.0277
     37 H4'         0.8886   -3.6447    0.8779 H         1 ACP         0.1249
     38 H3'        -0.7373   -1.2359    1.9870 H         1 ACP         0.0564
     39 HO3'        1.3408   -0.4870    2.3219 H         1 ACP         0.4511
     40 H2'        -0.0384   -0.0310    0.0096 H         1 ACP         0.0716
     41 HO2'        2.1463   -0.7958    0.0370 H         1 ACP         0.4454
     42 H1'        -0.4769   -2.1002   -1.8093 H         1 ACP         0.1310
     43 H8         -3.2974   -2.7789    0.2194 H         1 ACP         0.3565
     44 HN61       -6.2956    0.6838   -0.9296 H         1 ACP         0.4414
     45 HN62       -6.1788    2.2266   -1.7327 H         1 ACP         0.4414
     46 H2         -1.7135    2.6057   -2.8421 H         1 ACP         0.0676
     47 H47        -5.2337   -1.2102   -0.1507 H         1 ACP         0.5052
@<TRIPOS>BOND
     1    1    2 2
     2    1    3 1
     3    1    4 1
     4    1    8 1
     5    4   32 1
     6    5    6 2
     7    5    7 1
     8    5    8 1
     9    5   12 1
    10    8   33 1
    11    8   34 1
    12    9   10 2
    13    9   11 1
    14    9   12 1
    15    9   13 1
    16   13   14 1
    17   14   15 1
    18   14   35 1
    19   14   36 1
    20   15   16 1
    21   15   17 1
    22   15   37 1
    23   16   21 1
    24   17   18 1
    25   17   19 1
    26   17   38 1
    27   18   39 1
    28   19   20 1
    29   19   21 1
    30   19   40 1
    31   20   41 1
    32   21   22 1
    33   21   42 1
    34   22   23 ar
    35   22   31 ar
    36   23   24 ar
    37   23   43 1
    38   24   25 ar
    39   24   47 1
    40   25   26 ar
    41   25   31 ar
    42   26   27 1
    43   26   28 ar
    44   27   44 1
    45   27   45 1
    46   28   29 ar
    47   29   30 ar
    48   29   46 1
    49   30   31 ar
@<TRIPOS>SUBSTRUCTURE
     1 ACP         1 GROUP 0 A     ****
@<TRIPOS>MOLECULE
[[5-(6-amino-7,8-dihydropurin-8-ylium-9-yl)-3,4-dihydroxy-tetrahydrofuran-2-yl]methoxy-oxido-phosphoryl]oxy-[[hydroxy(oxido)phosphoryl]methyl]phosphinate
   47    49     1     0     0
SMALL
USER_CHARGES

@<TRIPOS>ATOM
      1 PG          0.8474   -4.0113    6.5299 P.3       1 ACP         1.3755
      2 O1G         0.1984   -5.2531    5.9647 O.co2     1 ACP        -0.8970
      3 O2G         1.7263   -4.0522    7.7587 O.co2     1 ACP        -0.8970
      4 O3G         1.6238   -3.2149    5.3370 O.3       1 ACP        -0.7959
      5 PB         -1.5988   -2.1181    5.5261 P.3       1 ACP         1.5194
      6 O1B        -0.7230   -1.4347    4.5021 O.co2     1 ACP        -0.8958
      7 O2B        -2.7412   -1.4048    6.2119 O.co2     1 ACP        -0.8958
      8 C3B        -0.4900   -2.7777    6.8489 C.3       1 ACP        -0.5612
      9 PA         -3.0181   -3.8920    3.6167 P.3       1 ACP         1.6019
     10 O1A        -4.2799   -3.0579    3.6615 O.co2     1 ACP        -0.9040
     11 O2A        -3.0933   -5.3964    3.4696 O.co2     1 ACP        -0.9040
     12 O3A        -2.1234   -3.5455    4.9382 O.3       1 ACP        -0.8156
     13 O5'        -2.0403   -3.2809    2.4568 O.3       1 ACP        -0.5465
     14 C5'        -0.7840   -3.8935    2.2172 C.3       1 ACP         0.2108
     15 C4'        -0.0724   -3.1466    1.1027 C.3       1 ACP         0.0552
     16 O4'        -0.8674   -3.1929   -0.0945 O.3       1 ACP        -0.3428
     17 C3'         0.1338   -1.6715    1.4027 C.3       1 ACP         0.0750
     18 O3'         1.2893   -1.4445    2.1808 O.3       1 ACP        -0.6066
     19 C2'         0.2158   -1.0724    0.0128 C.3       1 ACP         0.1185
     20 O2'         1.5141   -1.2448   -0.5513 O.3       1 ACP        -0.5858
     21 C1'        -0.7897   -1.9176   -0.7583 C.3       1 ACP         0.3826
     22 N9         -2.1040   -1.3333   -0.7704 N.pl3     1 ACP        -0.5729
     23 C8         -3.2304   -1.8262   -0.2767 C.ar      1 ACP         0.3288
     24 N7         -4.2847   -1.0309   -0.4481 N.pl3     1 ACP        -0.5338
     25 C5         -3.7951    0.0479   -1.0985 C.ar      1 ACP        -0.2581
     26 C6         -4.3691    1.1983   -1.5536 C.ar      1 ACP         0.7413
     27 N6         -5.7501    1.4047   -1.3573 N.pl3     1 ACP        -0.9512
     28 N1         -3.6289    2.1345   -2.1869 N.ar      1 ACP        -0.7699
     29 C2         -2.3041    1.8525   -2.3333 C.ar      1 ACP         0.6898
     30 N3         -1.6387    0.7492   -1.9218 N.ar      1 ACP        -0.6800
     31 C4         -2.4348   -0.1293   -1.3053 C.ar      1 ACP         0.6129
     32 HOG3        2.3429   -3.6778    4.8566 H         1 ACP         0.4199
     33 H3B1        0.0000   -1.9103    7.3049 H         1 ACP         0.0672
     34 H3B2       -1.1479   -3.2179    7.6064 H         1 ACP         0.0672
     35 H5'1       -0.1929   -3.8610    3.1379 H         1 ACP         0.0277
     36 H5'2       -0.9476   -4.9382    1.9344 H         1 ACP         0.0277
     37 H4'         0.8886   -3.6447    0.8779 H         1 ACP         0.1249
     38 H3'        -0.7373   -1.2359    1.9870 H         1 ACP         0.0564
     39 HO3'        1.1626   -1.9325    3.0084 H         1 ACP         0.4511
     40 H2'        -0.0384   -0.0310    0.0096 H         1 ACP         0.0716
     41 HO2'        2.1463   -0.7958    0.0370 H         1 ACP         0.4454
     42 H1'        -0.4769   -2.1002   -1.8093 H         1 ACP         0.1310
     43 H8         -3.2974   -2.7789    0.2194 H         1 ACP         0.3565
     44 HN61       -6.2956    0.6838   -0.9296 H         1 ACP         0.4414
     45 HN62       -6.1788    2.2266   -1.7327 H         1 ACP         0.4414
     46 H2         -1.7135    2.6057   -2.8421 H         1 ACP         0.0676
     47 H47        -5.2337   -1.2102   -0.1507 H         1 ACP         0.5052
@<TRIPOS>BOND
     1    1    2 2
     2    1    3 1
     3    1    4 1
     4    1    8 1
     5    4   32 1
     6    5    6 2
     7    5    7 1
     8    5    8 1
     9    5   12 1
    10    8   33 1
    11    8   34 1
    12    9   10 2
    13    9   11 1
    14    9   12 1
    15    9   13 1
    16   13   14 1
    17   14   15 1
    18   14   35 1
    19   14   36 1
    20   15   16 1
    21   15   17 1
    22   15   37 1
    23   16   21 1
    24   17   18 1
    25   17   19 1
    26   17   38 1
    27   18   39 1
    28   19   20 1
    29   19   21 1
    30   19   40 1
    31   20   41 1
    32   21   22 1
    33   21   42 1
    34   22   23 ar
    35   22   31 ar
    36   23   24 ar
    37   23   43 1
    38   24   25 ar
    39   24   47 1
    40   25   26 ar
    41   25   31 ar
    42   26   27 1
    43   26   28 ar
    44   27   44 1
    45   27   45 1
    46   28   29 ar
    47   29   30 ar
    48   29   46 1
    49   30   31 ar
@<TRIPOS>SUBSTRUCTURE
     1 ACP         1 GROUP 0 A     ****
@<TRIPOS>MOLECULE
[[5-(6-amino-7,8-dihydropurin-8-ylium-9-yl)-3,4-dihydroxy-tetrahydrofuran-2-yl]methoxy-oxido-phosphoryl]oxy-[[hydroxy(oxido)phosphoryl]methyl]phosphinate
   47    49     1     0     0
SMALL
USER_CHARGES

@<TRIPOS>ATOM
      1 PG         -3.7283   -4.3629    5.8806 P.3       1 ACP         1.3755
      2 O1G        -2.4844   -3.8270    5.2111 O.co2     1 ACP        -0.8970
      3 O2G        -4.0432   -4.0839    7.3322 O.co2     1 ACP        -0.8970
      4 O3G        -5.0316   -4.0067    4.9671 O.3       1 ACP        -0.7959
      5 PB         -3.7545   -7.0165    4.0009 P.3       1 ACP         1.5194
      6 O1B        -5.0072   -6.5657    3.2865 O.co2     1 ACP        -0.8958
      7 O2B        -3.4349   -8.4774    4.2198 O.co2     1 ACP        -0.8958
      8 C3B        -3.7376   -6.1965    5.6566 C.3       1 ACP        -0.5612
      9 PA         -1.8573   -6.2723    1.8436 P.3       1 ACP         1.6019
     10 O1A        -2.8476   -5.5747    0.9368 O.co2     1 ACP        -0.9040
     11 O2A        -1.3728   -7.6703    1.5255 O.co2     1 ACP        -0.9040
     12 O3A        -2.4556   -6.2653    3.3632 O.3       1 ACP        -0.8156
     13 O5'        -0.5697   -5.2855    2.0524 O.3       1 ACP        -0.5465
     14 C5'        -0.7840   -3.8935    2.2172 C.3       1 ACP         0.2108
     15 C4'        -0.0724   -3.1466    1.1027 C.3       1 ACP         0.0552
     16 O4'        -0.8674   -3.1929   -0.0945 O.3       1 ACP        -0.3428
     17 C3'         0.1338   -1.6715    1.4027 C.3       1 ACP         0.0750
     18 O3'         1.2893   -1.4445    2.1808 O.3       1 ACP        -0.6066
     19 C2'         0.2158   -1.0724    0.0128 C.3       1 ACP         0.1185
     20 O2'         1.5141   -1.2448   -0.5513 O.3       1 ACP        -0.5858
     21 C1'        -0.7897   -1.9176   -0.7583 C.3       1 ACP         0.3826
     22 N9         -2.1040   -1.3333   -0.7704 N.pl3     1 ACP        -0.5729
     23 C8         -3.0822   -1.4850    0.1102 C.ar      1 ACP         0.3288
     24 N7         -4.1844   -0.7999   -0.1888 N.pl3     1 ACP        -0.5338
     25 C5         -3.8875   -0.1651   -1.3445 C.ar      1 ACP        -0.2581
     26 C6         -4.5941    0.6799   -2.1486 C.ar      1 ACP         0.7413
     27 N6         -5.9138    1.0274   -1.7939 N.pl3     1 ACP        -0.9512
     28 N1         -4.0421    1.1824   -3.2748 N.ar      1 ACP        -0.7699
     29 C2         -2.7637    0.7937   -3.5405 C.ar      1 ACP         0.6898
     30 N3         -1.9788   -0.0343   -2.8139 N.ar      1 ACP        -0.6800
     31 C4         -2.5915   -0.4902   -1.7174 C.ar      1 ACP         0.6129
     32 HOG3       -5.2311   -3.0638    4.7843 H         1 ACP         0.4199
     33 H3B1       -4.6191   -6.5632    6.1942 H         1 ACP         0.0672
     34 H3B2       -2.8534   -6.5801    6.1776 H         1 ACP         0.0672
     35 H5'1       -1.8599   -3.6946    2.1849 H         1 ACP         0.0277
     36 H5'2       -0.3934   -3.5881    3.1930 H         1 ACP         0.0277
     37 H4'         0.8886   -3.6447    0.8779 H         1 ACP         0.1249
     38 H3'        -0.7373   -1.2359    1.9870 H         1 ACP         0.0564
     39 HO3'        1.1626   -1.9325    3.0084 H         1 ACP         0.4511
     40 H2'        -0.0384   -0.0310    0.0096 H         1 ACP         0.0716
     41 HO2'        2.1463   -0.7958    0.0370 H         1 ACP         0.4454
     42 H1'        -0.4769   -2.1002   -1.8093 H         1 ACP         0.1310
     43 H8         -3.0031   -2.1011    0.9891 H         1 ACP         0.3565
     44 HN61       -6.3271    0.6117   -0.9836 H         1 ACP         0.4414
     45 HN62       -6.4471    1.6092   -2.4083 H         1 ACP         0.4414
     46 H2         -2.3243    1.1986   -4.4449 H         1 ACP         0.0676
     47 H47        -5.0436   -0.7722    0.3425 H         1 ACP         0.5052
@<TRIPOS>BOND
     1    1    2 2
     2    1    3 1
     3    1    4 1
     4    1    8 1
     5    4   32 1
     6    5    6 2
     7    5    7 1
     8    5    8 1
     9    5   12 1
    10    8   33 1
    11    8   34 1
    12    9   10 2
    13    9   11 1
    14    9   12 1
    15    9   13 1
    16   13   14 1
    17   14   15 1
    18   14   35 1
    19   14   36 1
    20   15   16 1
    21   15   17 1
    22   15   37 1
    23   16   21 1
    24   17   18 1
    25   17   19 1
    26   17   38 1
    27   18   39 1
    28   19   20 1
    29   19   21 1
    30   19   40 1
    31   20   41 1
    32   21   22 1
    33   21   42 1
    34   22   23 ar
    35   22   31 ar
    36   23   24 ar
    37   23   43 1
    38   24   25 ar
    39   24   47 1
    40   25   26 ar
    41   25   31 ar
    42   26   27 1
    43   26   28 ar
    44   27   44 1
    45   27   45 1
    46   28   29 ar
    47   29   30 ar
    48   29   46 1
    49   30   31 ar
@<TRIPOS>SUBSTRUCTURE
     1 ACP         1 GROUP 0 A     ****
@<TRIPOS>MOLECULE
[[5-(6-amino-7,8-dihydropurin-8-ylium-9-yl)-3,4-dihydroxy-tetrahydrofuran-2-yl]methoxy-oxido-phosphoryl]oxy-[[hydroxy(oxido)phosphoryl]methyl]phosphinate
   47    49     1     0     0
SMALL
USER_CHARGES

@<TRIPOS>ATOM
      1 PG          3.3978   -4.4720    4.1597 P.3       1 ACP         1.3755
      2 O1G         4.5468   -4.4212    5.1396 O.co2     1 ACP        -0.8970
      3 O2G         2.0277   -3.9321    4.4994 O.co2     1 ACP        -0.8970
      4 O3G         3.8799   -3.8591    2.7273 O.3       1 ACP        -0.7959
      5 PB          1.8916   -6.7858    2.4414 P.3       1 ACP         1.5194
      6 O1B         2.0390   -8.2805    2.2774 O.co2     1 ACP        -0.8958
      7 O2B         1.9353   -5.8392    1.2639 O.co2     1 ACP        -0.8958
      8 C3B         3.1842   -6.2316    3.6398 C.3       1 ACP        -0.5612
      9 PA         -1.0048   -6.4109    2.9679 P.3       1 ACP         1.6019
     10 O1A        -1.7723   -5.8853    4.1614 O.co2     1 ACP        -0.9040
     11 O2A        -1.3819   -7.7301    2.3290 O.co2     1 ACP        -0.9040
     12 O3A         0.5812   -6.4578    3.3543 O.3       1 ACP        -0.8156
     13 O5'        -0.9728   -5.2427    1.8237 O.3       1 ACP        -0.5465
     14 C5'        -0.7840   -3.8935    2.2172 C.3       1 ACP         0.2108
     15 C4'        -0.0724   -3.1466    1.1027 C.3       1 ACP         0.0552
     16 O4'        -0.8674   -3.1929   -0.0945 O.3       1 ACP        -0.3428
     17 C3'         0.1338   -1.6715    1.4027 C.3       1 ACP         0.0750
     18 O3'         1.2893   -1.4445    2.1808 O.3       1 ACP        -0.6066
     19 C2'         0.2158   -1.0724    0.0128 C.3       1 ACP         0.1185
     20 O2'         1.5141   -1.2448   -0.5513 O.3       1 ACP        -0.5858
     21 C1'        -0.7897   -1.9176   -0.7583 C.3       1 ACP         0.3826
     22 N9         -2.1040   -1.3333   -0.7704 N.pl3     1 ACP        -0.5729
     23 C8         -3.0822   -1.4850    0.1102 C.ar      1 ACP         0.3288
     24 N7         -4.1844   -0.7999   -0.1888 N.pl3     1 ACP        -0.5338
     25 C5         -3.8875   -0.1651   -1.3445 C.ar      1 ACP        -0.2581
     26 C6         -4.5941    0.6799   -2.1486 C.ar      1 ACP         0.7413
     27 N6         -5.9138    1.0274   -1.7939 N.pl3     1 ACP        -0.9512
     28 N1         -4.0421    1.1824   -3.2748 N.ar      1 ACP        -0.7699
     29 C2         -2.7637    0.7937   -3.5405 C.ar      1 ACP         0.6898
     30 N3         -1.9788   -0.0343   -2.8139 N.ar      1 ACP        -0.6800
     31 C4         -2.5915   -0.4902   -1.7174 C.ar      1 ACP         0.6129
     32 HOG3        4.1943   -2.9304    2.6979 H         1 ACP         0.4199
     33 H3B1        3.0195   -6.8020    4.5606 H         1 ACP         0.0672
     34 H3B2        4.1447   -6.5536    3.2224 H         1 ACP         0.0672
     35 H5'1       -1.7614   -3.4427    2.4167 H         1 ACP         0.0277
     36 H5'2       -0.1870   -3.8723    3.1344 H         1 ACP         0.0277
     37 H4'         0.8886   -3.6447    0.8779 H         1 ACP         0.1249
     38 H3'        -0.7373   -1.2359    1.9870 H         1 ACP         0.0564
     39 HO3'        1.1626   -1.9325    3.0084 H         1 ACP         0.4511
     40 H2'        -0.0384   -0.0310    0.0096 H         1 ACP         0.0716
     41 HO2'        1.6843   -2.2021   -0.5965 H         1 ACP         0.4454
     42 H1'        -0.4769   -2.1002   -1.8093 H         1 ACP         0.1310
     43 H8         -3.0031   -2.1011    0.9891 H         1 ACP         0.3565
     44 HN61       -6.3271    0.6117   -0.9836 H         1 ACP         0.4414
     45 HN62       -6.4471    1.6092   -2.4083 H         1 ACP         0.4414
     46 H2         -2.3243    1.1986   -4.4449 H         1 ACP         0.0676
     47 H47        -5.0436   -0.7722    0.3425 H         1 ACP         0.5052
@<TRIPOS>BOND
     1    1    2 2
     2    1    3 1
     3    1    4 1
     4    1    8 1
     5    4   32 1
     6    5    6 2
     7    5    7 1
     8    5    8 1
     9    5   12 1
    10    8   33 1
    11    8   34 1
    12    9   10 2
    13    9   11 1
    14    9   12 1
    15    9   13 1
    16   13   14 1
    17   14   15 1
    18   14   35 1
    19   14   36 1
    20   15   16 1
    21   15   17 1
    22   15   37 1
    23   16   21 1
    24   17   18 1
    25   17   19 1
    26   17   38 1
    27   18   39 1
    28   19   20 1
    29   19   21 1
    30   19   40 1
    31   20   41 1
    32   21   22 1
    33   21   42 1
    34   22   23 ar
    35   22   31 ar
    36   23   24 ar
    37   23   43 1
    38   24   25 ar
    39   24   47 1
    40   25   26 ar
    41   25   31 ar
    42   26   27 1
    43   26   28 ar
    44   27   44 1
    45   27   45 1
    46   28   29 ar
    47   29   30 ar
    48   29   46 1
    49   30   31 ar
@<TRIPOS>SUBSTRUCTURE
     1 ACP         1 GROUP 0 A     ****
@<TRIPOS>MOLECULE
[[5-(6-amino-7,8-dihydropurin-8-ylium-9-yl)-3,4-dihydroxy-tetrahydrofuran-2-yl]methoxy-oxido-phosphoryl]oxy-[[hydroxy(oxido)phosphoryl]methyl]phosphinate
   47    49     1     0     0
SMALL
USER_CHARGES

@<TRIPOS>ATOM
      1 PG          6.5119   -0.8606   -5.1777 P.3       1 ACP         1.3755
      2 O1G         7.5555    0.1902   -5.4770 O.co2     1 ACP        -0.8970
      3 O2G         6.7970   -2.3384   -5.3156 O.co2     1 ACP        -0.8970
      4 O3G         5.8564   -0.5715   -3.7126 O.3       1 ACP        -0.7959
      5 PB          3.4884   -1.5062   -6.1864 P.3       1 ACP         1.5194
      6 O1B         3.8678   -2.9076   -6.6045 O.co2     1 ACP        -0.8958
      7 O2B         2.4145   -0.7171   -6.8993 O.co2     1 ACP        -0.8958
      8 C3B         5.0287   -0.4859   -6.2132 C.3       1 ACP        -0.5612
      9 PA          2.1362   -2.2698   -3.6575 P.3       1 ACP         1.6019
     10 O1A         2.4953   -3.7397   -3.6734 O.co2     1 ACP        -0.9040
     11 O2A         0.7453   -1.8118   -4.0395 O.co2     1 ACP        -0.9040
     12 O3A         3.2175   -1.4646   -4.5792 O.3       1 ACP        -0.8156
     13 O5'         2.5237   -1.6631   -2.1889 O.3       1 ACP        -0.5465
     14 C5'         2.2816   -0.2918   -1.9206 C.3       1 ACP         0.2108
     15 C4'         2.7248    0.0226   -0.4980 C.3       1 ACP         0.0552
     16 O4'         2.4697    1.4219   -0.2462 O.3       1 ACP        -0.3428
     17 C3'         1.9404   -0.7419    0.5596 C.3       1 ACP         0.0750
     18 O3'         2.7418   -0.8086    1.7389 O.3       1 ACP        -0.6066
     19 C2'         0.7477    0.1630    0.7858 C.3       1 ACP         0.1185
     20 O2'         0.1373   -0.0577    2.0407 O.3       1 ACP        -0.5858
     21 C1'         1.3733    1.5427    0.6747 C.3       1 ACP         0.3826
     22 N9          0.4520    2.5240    0.1767 N.pl3     1 ACP        -0.5729
     23 C8         -0.8602    2.5861    0.3496 C.ar      1 ACP         0.3288
     24 N7         -1.4308    3.6326   -0.2443 N.pl3     1 ACP        -0.5338
     25 C5         -0.4080    4.2856   -0.8394 C.ar      1 ACP        -0.2581
     26 C6         -0.3432    5.4196   -1.5943 C.ar      1 ACP         0.7413
     27 N6         -1.5276    6.1333   -1.8702 N.pl3     1 ACP        -0.9512
     28 N1          0.8395    5.8603   -2.0764 N.ar      1 ACP        -0.7699
     29 C2          1.9319    5.1095   -1.7617 C.ar      1 ACP         0.6898
     30 N3          1.9773    3.9761   -1.0249 N.ar      1 ACP        -0.6800
     31 C4          0.7724    3.6031   -0.5836 C.ar      1 ACP         0.6129
     32 HOG3        6.4455   -0.5720   -2.9283 H         1 ACP         0.4199
     33 H3B1        5.3781   -0.4776   -7.2516 H         1 ACP         0.0672
     34 H3B2        4.7219    0.5356   -5.9627 H         1 ACP         0.0672
     35 H5'1        2.8429    0.3140   -2.6391 H         1 ACP         0.0277
     36 H5'2        1.2125   -0.0906   -2.0420 H         1 ACP         0.0277
     37 H4'         3.8050   -0.1388   -0.4008 H         1 ACP         0.1249
     38 H3'         1.6784   -1.7629    0.2714 H         1 ACP         0.0564
     39 HO3'        2.2232   -1.2979    2.3953 H         1 ACP         0.4511
     40 H2'        -0.0011    0.0027    0.0003 H         1 ACP         0.0716
     41 HO2'       -0.1563   -0.9855    2.0596 H         1 ACP         0.4454
     42 H1'         1.7826    1.9024    1.6451 H         1 ACP         0.1310
     43 H8         -1.4217    1.8638    0.9164 H         1 ACP         0.3565
     44 HN61       -2.4023    5.7711   -1.5477 H         1 ACP         0.4414
     45 HN62       -1.4857    6.9379   -2.4627 H         1 ACP         0.4414
     46 H2          2.8789    5.4660   -2.1503 H         1 ACP         0.0676
     47 H47        -2.4129    3.8706   -0.2402 H         1 ACP         0.5052
@<TRIPOS>BOND
     1    1    2 2
     2    1    3 1
     3    1    4 1
     4    1    8 1
     5    4   32 1
     6    5    6 2
     7    5    7 1
     8    5    8 1
     9    5   12 1
    10    8   33 1
    11    8   34 1
    12    9   10 2
    13    9   11 1
    14    9   12 1
    15    9   13 1
    16   13   14 1
    17   14   15 1
    18   14   35 1
    19   14   36 1
    20   15   16 1
    21   15   17 1
    22   15   37 1
    23   16   21 1
    24   17   18 1
    25   17   19 1
    26   17   38 1
    27   18   39 1
    28   19   20 1
    29   19   21 1
    30   19   40 1
    31   20   41 1
    32   21   22 1
    33   21   42 1
    34   22   23 ar
    35   22   31 ar
    36   23   24 ar
    37   23   43 1
    38   24   25 ar
    39   24   47 1
    40   25   26 ar
    41   25   31 ar
    42   26   27 1
    43   26   28 ar
    44   27   44 1
    45   27   45 1
    46   28   29 ar
    47   29   30 ar
    48   29   46 1
    49   30   31 ar
@<TRIPOS>SUBSTRUCTURE
     1 ACP         1 GROUP 0 A     ****
@<TRIPOS>MOLECULE
[[5-(6-amino-7,8-dihydropurin-8-ylium-9-yl)-3,4-dihydroxy-tetrahydrofuran-2-yl]methoxy-oxido-phosphoryl]oxy-[[hydroxy(oxido)phosphoryl]methyl]phosphinate
   47    49     1     0     0
SMALL
USER_CHARGES

@<TRIPOS>ATOM
      1 PG         -1.5658   -8.4351    2.0245 P.3       1 ACP         1.3755
      2 O1G        -1.0380   -7.8607    0.7305 O.co2     1 ACP        -0.8970
      3 O2G        -2.7384   -7.8234    2.7559 O.co2     1 ACP        -0.8970
      4 O3G        -1.8178  -10.0362    1.8437 O.3       1 ACP        -0.7959
      5 PB          0.7995   -7.0350    3.7625 P.3       1 ACP         1.5194
      6 O1B         1.4128   -6.4127    2.5298 O.co2     1 ACP        -0.8958
      7 O2B         1.6326   -7.4513    4.9528 O.co2     1 ACP        -0.8958
      8 C3B        -0.1558   -8.5188    3.2150 C.3       1 ACP        -0.5612
      9 PA         -0.5272   -4.5716    4.7518 P.3       1 ACP         1.6019
     10 O1A         0.5026   -4.3627    5.8407 O.co2     1 ACP        -0.9040
     11 O2A        -1.9772   -4.2040    4.9812 O.co2     1 ACP        -0.9040
     12 O3A        -0.4587   -6.1302    4.2691 O.3       1 ACP        -0.8156
     13 O5'         0.0099   -3.8403    3.3910 O.3       1 ACP        -0.5465
     14 C5'        -0.7840   -3.8935    2.2172 C.3       1 ACP         0.2108
     15 C4'        -0.0724   -3.1466    1.1027 C.3       1 ACP         0.0552
     16 O4'        -0.8674   -3.1929   -0.0945 O.3       1 ACP        -0.3428
     17 C3'         0.1338   -1.6715    1.4027 C.3       1 ACP         0.0750
     18 O3'         1.2893   -1.4445    2.1808 O.3       1 ACP        -0.6066
     19 C2'         0.2158   -1.0724    0.0128 C.3       1 ACP         0.1185
     20 O2'         1.5141   -1.2448   -0.5513 O.3       1 ACP        -0.5858
     21 C1'        -0.7897   -1.9176   -0.7583 C.3       1 ACP         0.3826
     22 N9         -2.1040   -1.3333   -0.7704 N.pl3     1 ACP        -0.5729
     23 C8         -3.2304   -1.8262   -0.2767 C.ar      1 ACP         0.3288
     24 N7         -4.2847   -1.0309   -0.4481 N.pl3     1 ACP        -0.5338
     25 C5         -3.7951    0.0479   -1.0985 C.ar      1 ACP        -0.2581
     26 C6         -4.3691    1.1983   -1.5536 C.ar      1 ACP         0.7413
     27 N6         -5.7501    1.4047   -1.3573 N.pl3     1 ACP        -0.9512
     28 N1         -3.6289    2.1345   -2.1869 N.ar      1 ACP        -0.7699
     29 C2         -2.3041    1.8525   -2.3333 C.ar      1 ACP         0.6898
     30 N3         -1.6387    0.7492   -1.9218 N.ar      1 ACP        -0.6800
     31 C4         -2.4348   -0.1293   -1.3053 C.ar      1 ACP         0.6129
     32 HOG3       -2.4528  -10.3354    1.1585 H         1 ACP         0.4199
     33 H3B1        0.5706   -9.2118    2.7763 H         1 ACP         0.0672
     34 H3B2       -0.5436   -8.9852    4.1274 H         1 ACP         0.0672
     35 H5'1       -0.9358   -4.9414    1.9395 H         1 ACP         0.0277
     36 H5'2       -1.7558   -3.4349    2.4258 H         1 ACP         0.0277
     37 H4'         0.8886   -3.6447    0.8779 H         1 ACP         0.1249
     38 H3'        -0.7373   -1.2359    1.9870 H         1 ACP         0.0564
     39 HO3'        1.3408   -0.4870    2.3219 H         1 ACP         0.4511
     40 H2'        -0.0384   -0.0310    0.0096 H         1 ACP         0.0716
     41 HO2'        1.4998   -0.8412   -1.4369 H         1 ACP         0.4454
     42 H1'        -0.4769   -2.1002   -1.8093 H         1 ACP         0.1310
     43 H8         -3.2974   -2.7789    0.2194 H         1 ACP         0.3565
     44 HN61       -6.2956    0.6838   -0.9296 H         1 ACP         0.4414
     45 HN62       -6.1788    2.2266   -1.7327 H         1 ACP         0.4414
     46 H2         -1.7135    2.6057   -2.8421 H         1 ACP         0.0676
     47 H47        -5.2337   -1.2102   -0.1507 H         1 ACP         0.5052
@<TRIPOS>BOND
     1    1    2 2
     2    1    3 1
     3    1    4 1
     4    1    8 1
     5    4   32 1
     6    5    6 2
     7    5    7 1
     8    5    8 1
     9    5   12 1
    10    8   33 1
    11    8   34 1
    12    9   10 2
    13    9   11 1
    14    9   12 1
    15    9   13 1
    16   13   14 1
    17   14   15 1
    18   14   35 1
    19   14   36 1
    20   15   16 1
    21   15   17 1
    22   15   37 1
    23   16   21 1
    24   17   18 1
    25   17   19 1
    26   17   38 1
    27   18   39 1
    28   19   20 1
    29   19   21 1
    30   19   40 1
    31   20   41 1
    32   21   22 1
    33   21   42 1
    34   22   23 ar
    35   22   31 ar
    36   23   24 ar
    37   23   43 1
    38   24   25 ar
    39   24   47 1
    40   25   26 ar
    41   25   31 ar
    42   26   27 1
    43   26   28 ar
    44   27   44 1
    45   27   45 1
    46   28   29 ar
    47   29   30 ar
    48   29   46 1
    49   30   31 ar
@<TRIPOS>SUBSTRUCTURE
     1 ACP         1 GROUP 0 A     ****
@<TRIPOS>MOLECULE
[[5-(6-amino-7,8-dihydropurin-8-ylium-9-yl)-3,4-dihydroxy-tetrahydrofuran-2-yl]methoxy-oxido-phosphoryl]oxy-[[hydroxy(oxido)phosphoryl]methyl]phosphinate
   47    49     1     0     0
SMALL
USER_CHARGES

@<TRIPOS>ATOM
      1 PG          2.3425    1.7701   -6.1697 P.3       1 ACP         1.3755
      2 O1G         1.3454    2.1524   -7.2386 O.co2     1 ACP        -0.8970
      3 O2G         3.2793    2.7794   -5.5468 O.co2     1 ACP        -0.8970
      4 O3G         1.5808    0.9404   -4.9901 O.3       1 ACP        -0.7959
      5 PB          4.7420   -0.4058   -5.8820 P.3       1 ACP         1.5194
      6 O1B         5.7509    0.6683   -5.5486 O.co2     1 ACP        -0.8958
      7 O2B         5.1254   -1.6689   -6.6181 O.co2     1 ACP        -0.8958
      8 C3B         3.3786    0.3947   -6.8382 C.3       1 ACP        -0.5612
      9 PA          4.3690   -1.3831   -3.1048 P.3       1 ACP         1.6019
     10 O1A         5.1949   -0.3247   -2.4066 O.co2     1 ACP        -0.9040
     11 O2A         4.9213   -2.7760   -3.3173 O.co2     1 ACP        -0.9040
     12 O3A         3.8867   -0.7919   -4.5487 O.3       1 ACP        -0.8156
     13 O5'         2.9202   -1.4821   -2.3524 O.3       1 ACP        -0.5465
     14 C5'         2.2816   -0.2918   -1.9206 C.3       1 ACP         0.2108
     15 C4'         2.7248    0.0226   -0.4980 C.3       1 ACP         0.0552
     16 O4'         2.4697    1.4219   -0.2462 O.3       1 ACP        -0.3428
     17 C3'         1.9404   -0.7419    0.5596 C.3       1 ACP         0.0750
     18 O3'         2.7418   -0.8086    1.7389 O.3       1 ACP        -0.6066
     19 C2'         0.7477    0.1630    0.7858 C.3       1 ACP         0.1185
     20 O2'         0.1373   -0.0577    2.0407 O.3       1 ACP        -0.5858
     21 C1'         1.3733    1.5427    0.6747 C.3       1 ACP         0.3826
     22 N9          0.4520    2.5240    0.1767 N.pl3     1 ACP        -0.5729
     23 C8          0.1928    2.8484   -1.0815 C.ar      1 ACP         0.3288
     24 N7         -0.7248    3.8048   -1.2110 N.pl3     1 ACP        -0.5338
     25 C5         -1.0765    4.1129    0.0571 C.ar      1 ACP        -0.2581
     26 C6         -1.9614    5.0063    0.5851 C.ar      1 ACP         0.7413
     27 N6         -2.7145    5.8254   -0.2810 N.pl3     1 ACP        -0.9512
     28 N1         -2.1199    5.1113    1.9228 N.ar      1 ACP        -0.7699
     29 C2         -1.3522    4.2822    2.6839 C.ar      1 ACP         0.6898
     30 N3         -0.4501    3.3660    2.2638 N.ar      1 ACP        -0.6800
     31 C4         -0.3487    3.3198    0.9322 C.ar      1 ACP         0.6129
     32 HOG3        0.8498    1.3802   -4.5061 H         1 ACP         0.4199
     33 H3B1        3.8286    0.7754   -7.7618 H         1 ACP         0.0672
     34 H3B2        2.6891   -0.4097   -7.1173 H         1 ACP         0.0672
     35 H5'1        2.5581    0.5235   -2.5966 H         1 ACP         0.0277
     36 H5'2        1.1974   -0.4370   -1.9607 H         1 ACP         0.0277
     37 H4'         3.8050   -0.1388   -0.4008 H         1 ACP         0.1249
     38 H3'         1.6784   -1.7629    0.2714 H         1 ACP         0.0564
     39 HO3'        3.5554   -1.2733    1.4914 H         1 ACP         0.4511
     40 H2'        -0.0011    0.0027    0.0003 H         1 ACP         0.0716
     41 HO2'        0.8082    0.1199    2.7232 H         1 ACP         0.4454
     42 H1'         1.7826    1.9024    1.6451 H         1 ACP         0.1310
     43 H8          0.6728    2.3873   -1.9272 H         1 ACP         0.3565
     44 HN61       -2.5537    5.7714   -1.2667 H         1 ACP         0.4414
     45 HN62       -3.3283    6.5126    0.1080 H         1 ACP         0.4414
     46 H2         -1.4818    4.3694    3.7565 H         1 ACP         0.0676
     47 H47        -1.0701    4.2005   -2.0743 H         1 ACP         0.5052
@<TRIPOS>BOND
     1    1    2 2
     2    1    3 1
     3    1    4 1
     4    1    8 1
     5    4   32 1
     6    5    6 2
     7    5    7 1
     8    5    8 1
     9    5   12 1
    10    8   33 1
    11    8   34 1
    12    9   10 2
    13    9   11 1
    14    9   12 1
    15    9   13 1
    16   13   14 1
    17   14   15 1
    18   14   35 1
    19   14   36 1
    20   15   16 1
    21   15   17 1
    22   15   37 1
    23   16   21 1
    24   17   18 1
    25   17   19 1
    26   17   38 1
    27   18   39 1
    28   19   20 1
    29   19   21 1
    30   19   40 1
    31   20   41 1
    32   21   22 1
    33   21   42 1
    34   22   23 ar
    35   22   31 ar
    36   23   24 ar
    37   23   43 1
    38   24   25 ar
    39   24   47 1
    40   25   26 ar
    41   25   31 ar
    42   26   27 1
    43   26   28 ar
    44   27   44 1
    45   27   45 1
    46   28   29 ar
    47   29   30 ar
    48   29   46 1
    49   30   31 ar
@<TRIPOS>SUBSTRUCTURE
     1 ACP         1 GROUP 0 A     ****
@<TRIPOS>MOLECULE
[[5-(6-amino-7,8-dihydropurin-8-ylium-9-yl)-3,4-dihydroxy-tetrahydrofuran-2-yl]methoxy-oxido-phosphoryl]oxy-[[hydroxy(oxido)phosphoryl]methyl]phosphinate
   47    49     1     0     0
SMALL
USER_CHARGES

@<TRIPOS>ATOM
      1 PG          1.7996   -5.0760   -3.3449 P.3       1 ACP         1.3755
      2 O1G         1.6634   -6.3861   -2.6046 O.co2     1 ACP        -0.8970
      3 O2G         2.5331   -3.8929   -2.7562 O.co2     1 ACP        -0.8970
      4 O3G         2.3549   -5.3603   -4.8518 O.3       1 ACP        -0.7959
      5 PB         -0.2371   -2.9392   -4.7091 P.3       1 ACP         1.5194
      6 O1B        -1.7343   -2.8271   -4.8771 O.co2     1 ACP        -0.8958
      7 O2B         0.7098   -2.8972   -5.8864 O.co2     1 ACP        -0.8958
      8 C3B         0.0997   -4.5058   -3.7892 C.3       1 ACP        -0.5612
      9 PA          0.1597   -0.2651   -3.4849 P.3       1 ACP         1.6019
     10 O1A        -1.2995    0.1091   -3.3420 O.co2     1 ACP        -0.9040
     11 O2A         1.0029    0.3283   -4.5928 O.co2     1 ACP        -0.9040
     12 O3A         0.2694   -1.8925   -3.5663 O.3       1 ACP        -0.8156
     13 O5'         0.8970   -0.0132   -2.0468 O.3       1 ACP        -0.5465
     14 C5'         2.2816   -0.2918   -1.9206 C.3       1 ACP         0.2108
     15 C4'         2.7248    0.0226   -0.4980 C.3       1 ACP         0.0552
     16 O4'         2.4697    1.4219   -0.2462 O.3       1 ACP        -0.3428
     17 C3'         1.9404   -0.7419    0.5596 C.3       1 ACP         0.0750
     18 O3'         2.7418   -0.8086    1.7389 O.3       1 ACP        -0.6066
     19 C2'         0.7477    0.1630    0.7858 C.3       1 ACP         0.1185
     20 O2'         0.1373   -0.0577    2.0407 O.3       1 ACP        -0.5858
     21 C1'         1.3733    1.5427    0.6747 C.3       1 ACP         0.3826
     22 N9          0.4520    2.5240    0.1767 N.pl3     1 ACP        -0.5729
     23 C8          0.1928    2.8484   -1.0815 C.ar      1 ACP         0.3288
     24 N7         -0.7248    3.8048   -1.2110 N.pl3     1 ACP        -0.5338
     25 C5         -1.0765    4.1129    0.0571 C.ar      1 ACP        -0.2581
     26 C6         -1.9614    5.0063    0.5851 C.ar      1 ACP         0.7413
     27 N6         -2.7145    5.8254   -0.2810 N.pl3     1 ACP        -0.9512
     28 N1         -2.1199    5.1113    1.9228 N.ar      1 ACP        -0.7699
     29 C2         -1.3522    4.2822    2.6839 C.ar      1 ACP         0.6898
     30 N3         -0.4501    3.3660    2.2638 N.ar      1 ACP        -0.6800
     31 C4         -0.3487    3.3198    0.9322 C.ar      1 ACP         0.6129
     32 HOG3        3.2265   -5.7985   -4.9542 H         1 ACP         0.4199
     33 H3B1       -0.4534   -4.4375   -2.8458 H         1 ACP         0.0672
     34 H3B2       -0.3560   -5.3092   -4.3785 H         1 ACP         0.0672
     35 H5'1        2.4525   -1.3484   -2.1500 H         1 ACP         0.0277
     36 H5'2        2.8335    0.3232   -2.6384 H         1 ACP         0.0277
     37 H4'         3.8050   -0.1388   -0.4008 H         1 ACP         0.1249
     38 H3'         1.6784   -1.7629    0.2714 H         1 ACP         0.0564
     39 HO3'        2.2232   -1.2979    2.3953 H         1 ACP         0.4511
     40 H2'        -0.0011    0.0027    0.0003 H         1 ACP         0.0716
     41 HO2'       -0.1563   -0.9855    2.0596 H         1 ACP         0.4454
     42 H1'         1.7826    1.9024    1.6451 H         1 ACP         0.1310
     43 H8          0.6728    2.3873   -1.9272 H         1 ACP         0.3565
     44 HN61       -2.5537    5.7714   -1.2667 H         1 ACP         0.4414
     45 HN62       -3.3283    6.5126    0.1080 H         1 ACP         0.4414
     46 H2         -1.4818    4.3694    3.7565 H         1 ACP         0.0676
     47 H47        -1.0701    4.2005   -2.0743 H         1 ACP         0.5052
@<TRIPOS>BOND
     1    1    2 2
     2    1    3 1
     3    1    4 1
     4    1    8 1
     5    4   32 1
     6    5    6 2
     7    5    7 1
     8    5    8 1
     9    5   12 1
    10    8   33 1
    11    8   34 1
    12    9   10 2
    13    9   11 1
    14    9   12 1
    15    9   13 1
    16   13   14 1
    17   14   15 1
    18   14   35 1
    19   14   36 1
    20   15   16 1
    21   15   17 1
    22   15   37 1
    23   16   21 1
    24   17   18 1
    25   17   19 1
    26   17   38 1
    27   18   39 1
    28   19   20 1
    29   19   21 1
    30   19   40 1
    31   20   41 1
    32   21   22 1
    33   21   42 1
    34   22   23 ar
    35   22   31 ar
    36   23   24 ar
    37   23   43 1
    38   24   25 ar
    39   24   47 1
    40   25   26 ar
    41   25   31 ar
    42   26   27 1
    43   26   28 ar
    44   27   44 1
    45   27   45 1
    46   28   29 ar
    47   29   30 ar
    48   29   46 1
    49   30   31 ar
@<TRIPOS>SUBSTRUCTURE
     1 ACP         1 GROUP 0 A     ****
@<TRIPOS>MOLECULE
[[5-(6-amino-7,8-dihydropurin-8-ylium-9-yl)-3,4-dihydroxy-tetrahydrofuran-2-yl]methoxy-oxido-phosphoryl]oxy-[[hydroxy(oxido)phosphoryl]methyl]phosphinate
   47    49     1     0     0
SMALL
USER_CHARGES

@<TRIPOS>ATOM
      1 PG         -5.7811   -4.3001    2.1042 P.3       1 ACP         1.3755
      2 O1G        -6.8262   -4.1394    1.0249 O.co2     1 ACP        -0.8970
      3 O2G        -4.4704   -3.5484    2.0718 O.co2     1 ACP        -0.8970
      4 O3G        -6.4779   -4.1077    3.5661 O.3       1 ACP        -0.7959
      5 PB         -4.1485   -6.7825    3.4260 P.3       1 ACP         1.5194
      6 O1B        -4.1072   -8.2794    3.2254 O.co2     1 ACP        -0.8958
      7 O2B        -4.4336   -6.1591    4.7730 O.co2     1 ACP        -0.8958
      8 C3B        -5.3823   -6.0992    2.2324 C.3       1 ACP        -0.5612
      9 PA         -1.2314   -6.3276    3.1254 P.3       1 ACP         1.6019
     10 O1A        -0.8495   -7.7340    2.7182 O.co2     1 ACP        -0.9040
     11 O2A        -0.9696   -5.8343    4.5320 O.co2     1 ACP        -0.9040
     12 O3A        -2.8126   -6.1031    2.7842 O.3       1 ACP        -0.8156
     13 O5'        -0.5697   -5.2855    2.0524 O.3       1 ACP        -0.5465
     14 C5'        -0.7840   -3.8935    2.2172 C.3       1 ACP         0.2108
     15 C4'        -0.0724   -3.1466    1.1027 C.3       1 ACP         0.0552
     16 O4'        -0.8674   -3.1929   -0.0945 O.3       1 ACP        -0.3428
     17 C3'         0.1338   -1.6715    1.4027 C.3       1 ACP         0.0750
     18 O3'         1.2893   -1.4445    2.1808 O.3       1 ACP        -0.6066
     19 C2'         0.2158   -1.0724    0.0128 C.3       1 ACP         0.1185
     20 O2'         1.5141   -1.2448   -0.5513 O.3       1 ACP        -0.5858
     21 C1'        -0.7897   -1.9176   -0.7583 C.3       1 ACP         0.3826
     22 N9         -2.1040   -1.3333   -0.7704 N.pl3     1 ACP        -0.5729
     23 C8         -2.8739   -1.0133    0.2593 C.ar      1 ACP         0.3288
     24 N7         -4.0439   -0.4818   -0.0902 N.pl3     1 ACP        -0.5338
     25 C5         -4.0184   -0.4615   -1.4414 C.ar      1 ACP        -0.2581
     26 C6         -4.9120   -0.0399   -2.3814 C.ar      1 ACP         0.7413
     27 N6         -6.1459    0.5018   -1.9665 N.pl3     1 ACP        -0.9512
     28 N1         -4.6250   -0.1374   -3.6981 N.ar      1 ACP        -0.7699
     29 C2         -3.4114   -0.6729   -4.0088 C.ar      1 ACP         0.6898
     30 N3         -2.4579   -1.1190   -3.1595 N.ar      1 ACP        -0.6800
     31 C4         -2.8124   -0.9904   -1.8776 C.ar      1 ACP         0.6129
     32 HOG3       -6.9166   -3.2535    3.7665 H         1 ACP         0.4199
     33 H3B1       -5.0536   -6.4088    1.2341 H         1 ACP         0.0672
     34 H3B2       -6.3261   -6.6151    2.4410 H         1 ACP         0.0672
     35 H5'1       -1.8599   -3.6946    2.1849 H         1 ACP         0.0277
     36 H5'2       -0.3934   -3.5881    3.1930 H         1 ACP         0.0277
     37 H4'         0.8886   -3.6447    0.8779 H         1 ACP         0.1249
     38 H3'        -0.7373   -1.2359    1.9870 H         1 ACP         0.0564
     39 HO3'        1.3408   -0.4870    2.3219 H         1 ACP         0.4511
     40 H2'        -0.0384   -0.0310    0.0096 H         1 ACP         0.0716
     41 HO2'        2.1463   -0.7958    0.0370 H         1 ACP         0.4454
     42 H1'        -0.4769   -2.1002   -1.8093 H         1 ACP         0.1310
     43 H8         -2.5891   -1.1636    1.2862 H         1 ACP         0.3565
     44 HN61       -6.3657    0.5248   -0.9911 H         1 ACP         0.4414
     45 HN62       -6.8193    0.7669   -2.6568 H         1 ACP         0.4414
     46 H2         -3.1848   -0.7497   -5.0660 H         1 ACP         0.0676
     47 H47        -4.7768   -0.1684    0.5309 H         1 ACP         0.5052
@<TRIPOS>BOND
     1    1    2 2
     2    1    3 1
     3    1    4 1
     4    1    8 1
     5    4   32 1
     6    5    6 2
     7    5    7 1
     8    5    8 1
     9    5   12 1
    10    8   33 1
    11    8   34 1
    12    9   10 2
    13    9   11 1
    14    9   12 1
    15    9   13 1
    16   13   14 1
    17   14   15 1
    18   14   35 1
    19   14   36 1
    20   15   16 1
    21   15   17 1
    22   15   37 1
    23   16   21 1
    24   17   18 1
    25   17   19 1
    26   17   38 1
    27   18   39 1
    28   19   20 1
    29   19   21 1
    30   19   40 1
    31   20   41 1
    32   21   22 1
    33   21   42 1
    34   22   23 ar
    35   22   31 ar
    36   23   24 ar
    37   23   43 1
    38   24   25 ar
    39   24   47 1
    40   25   26 ar
    41   25   31 ar
    42   26   27 1
    43   26   28 ar
    44   27   44 1
    45   27   45 1
    46   28   29 ar
    47   29   30 ar
    48   29   46 1
    49   30   31 ar
@<TRIPOS>SUBSTRUCTURE
     1 ACP         1 GROUP 0 A     ****
@<TRIPOS>MOLECULE
[[5-(6-amino-7,8-dihydropurin-8-ylium-9-yl)-3,4-dihydroxy-tetrahydrofuran-2-yl]methoxy-oxido-phosphoryl]oxy-[[hydroxy(oxido)phosphoryl]methyl]phosphinate
   47    49     1     0     0
SMALL
USER_CHARGES

@<TRIPOS>ATOM
      1 PG         -2.1759   -3.3674    8.4725 P.3       1 ACP         1.3755
      2 O1G        -1.3411   -3.7518    9.6717 O.co2     1 ACP        -0.8970
      3 O2G        -3.1096   -4.3450    7.7967 O.co2     1 ACP        -0.8970
      4 O3G        -2.9807   -1.9856    8.7931 O.3       1 ACP        -0.7959
      5 PB         -1.5988   -2.1181    5.5261 P.3       1 ACP         1.5194
      6 O1B        -0.3750   -1.6696    4.7619 O.co2     1 ACP        -0.8958
      7 O2B        -2.7799   -1.2049    5.7609 O.co2     1 ACP        -0.8958
      8 C3B        -1.0293   -2.7155    7.1793 C.3       1 ACP        -0.5612
      9 PA         -3.0181   -3.8920    3.6167 P.3       1 ACP         1.6019
     10 O1A        -4.2799   -3.0579    3.6615 O.co2     1 ACP        -0.9040
     11 O2A        -3.0933   -5.3964    3.4696 O.co2     1 ACP        -0.9040
     12 O3A        -2.1234   -3.5455    4.9382 O.3       1 ACP        -0.8156
     13 O5'        -2.0403   -3.2809    2.4568 O.3       1 ACP        -0.5465
     14 C5'        -0.7840   -3.8935    2.2172 C.3       1 ACP         0.2108
     15 C4'        -0.0724   -3.1466    1.1027 C.3       1 ACP         0.0552
     16 O4'        -0.8674   -3.1929   -0.0945 O.3       1 ACP        -0.3428
     17 C3'         0.1338   -1.6715    1.4027 C.3       1 ACP         0.0750
     18 O3'         1.2893   -1.4445    2.1808 O.3       1 ACP        -0.6066
     19 C2'         0.2158   -1.0724    0.0128 C.3       1 ACP         0.1185
     20 O2'         1.5141   -1.2448   -0.5513 O.3       1 ACP        -0.5858
     21 C1'        -0.7897   -1.9176   -0.7583 C.3       1 ACP         0.3826
     22 N9         -2.1040   -1.3333   -0.7704 N.pl3     1 ACP        -0.5729
     23 C8         -3.2304   -1.8262   -0.2767 C.ar      1 ACP         0.3288
     24 N7         -4.2847   -1.0309   -0.4481 N.pl3     1 ACP        -0.5338
     25 C5         -3.7951    0.0479   -1.0985 C.ar      1 ACP        -0.2581
     26 C6         -4.3691    1.1983   -1.5536 C.ar      1 ACP         0.7413
     27 N6         -5.7501    1.4047   -1.3573 N.pl3     1 ACP        -0.9512
     28 N1         -3.6289    2.1345   -2.1869 N.ar      1 ACP        -0.7699
     29 C2         -2.3041    1.8525   -2.3333 C.ar      1 ACP         0.6898
     30 N3         -1.6387    0.7492   -1.9218 N.ar      1 ACP        -0.6800
     31 C4         -2.4348   -0.1293   -1.3053 C.ar      1 ACP         0.6129
     32 HOG3       -3.6059   -1.9729    9.5488 H         1 ACP         0.4199
     33 H3B1       -0.3028   -3.5131    6.9883 H         1 ACP         0.0672
     34 H3B2       -0.4862   -1.8800    7.6346 H         1 ACP         0.0672
     35 H5'1       -0.1929   -3.8610    3.1379 H         1 ACP         0.0277
     36 H5'2       -0.9476   -4.9382    1.9344 H         1 ACP         0.0277
     37 H4'         0.8886   -3.6447    0.8779 H         1 ACP         0.1249
     38 H3'        -0.7373   -1.2359    1.9870 H         1 ACP         0.0564
     39 HO3'        1.3408   -0.4870    2.3219 H         1 ACP         0.4511
     40 H2'        -0.0384   -0.0310    0.0096 H         1 ACP         0.0716
     41 HO2'        2.1463   -0.7958    0.0370 H         1 ACP         0.4454
     42 H1'        -0.4769   -2.1002   -1.8093 H         1 ACP         0.1310
     43 H8         -3.2974   -2.7789    0.2194 H         1 ACP         0.3565
     44 HN61       -6.2956    0.6838   -0.9296 H         1 ACP         0.4414
     45 HN62       -6.1788    2.2266   -1.7327 H         1 ACP         0.4414
     46 H2         -1.7135    2.6057   -2.8421 H         1 ACP         0.0676
     47 H47        -5.2337   -1.2102   -0.1507 H         1 ACP         0.5052
@<TRIPOS>BOND
     1    1    2 2
     2    1    3 1
     3    1    4 1
     4    1    8 1
     5    4   32 1
     6    5    6 2
     7    5    7 1
     8    5    8 1
     9    5   12 1
    10    8   33 1
    11    8   34 1
    12    9   10 2
    13    9   11 1
    14    9   12 1
    15    9   13 1
    16   13   14 1
    17   14   15 1
    18   14   35 1
    19   14   36 1
    20   15   16 1
    21   15   17 1
    22   15   37 1
    23   16   21 1
    24   17   18 1
    25   17   19 1
    26   17   38 1
    27   18   39 1
    28   19   20 1
    29   19   21 1
    30   19   40 1
    31   20   41 1
    32   21   22 1
    33   21   42 1
    34   22   23 ar
    35   22   31 ar
    36   23   24 ar
    37   23   43 1
    38   24   25 ar
    39   24   47 1
    40   25   26 ar
    41   25   31 ar
    42   26   27 1
    43   26   28 ar
    44   27   44 1
    45   27   45 1
    46   28   29 ar
    47   29   30 ar
    48   29   46 1
    49   30   31 ar
@<TRIPOS>SUBSTRUCTURE
     1 ACP         1 GROUP 0 A     ****
@<TRIPOS>MOLECULE
[[5-(6-amino-7,8-dihydropurin-8-ylium-9-yl)-3,4-dihydroxy-tetrahydrofuran-2-yl]methoxy-oxido-phosphoryl]oxy-[[hydroxy(oxido)phosphoryl]methyl]phosphinate
   47    49     1     0     0
SMALL
USER_CHARGES

@<TRIPOS>ATOM
      1 PG         -4.1695   -6.7025    5.2953 P.3       1 ACP         1.3755
      2 O1G        -3.9766   -6.1070    3.9202 O.co2     1 ACP        -0.8970
      3 O2G        -5.4252   -6.4687    6.1033 O.co2     1 ACP        -0.8970
      4 O3G        -3.8507   -8.3011    5.2431 O.3       1 ACP        -0.7959
      5 PB         -0.9826   -6.5919    5.9329 P.3       1 ACP         1.5194
      6 O1B        -0.8686   -8.0982    5.9063 O.co2     1 ACP        -0.8958
      7 O2B        -0.1041   -5.7342    6.8144 O.co2     1 ACP        -0.8958
      8 C3B        -2.7373   -6.1779    6.3374 C.3       1 ACP        -0.5612
      9 PA          0.1768   -6.1246    3.2414 P.3       1 ACP         1.6019
     10 O1A         0.2754   -7.5719    2.8109 O.co2     1 ACP        -0.9040
     11 O2A         1.4080   -5.3690    3.6930 O.co2     1 ACP        -0.9040
     12 O3A        -0.9581   -6.0101    4.4101 O.3       1 ACP        -0.8156
     13 O5'        -0.5697   -5.2855    2.0524 O.3       1 ACP        -0.5465
     14 C5'        -0.7840   -3.8935    2.2172 C.3       1 ACP         0.2108
     15 C4'        -0.0724   -3.1466    1.1027 C.3       1 ACP         0.0552
     16 O4'        -0.8674   -3.1929   -0.0945 O.3       1 ACP        -0.3428
     17 C3'         0.1338   -1.6715    1.4027 C.3       1 ACP         0.0750
     18 O3'         1.2893   -1.4445    2.1808 O.3       1 ACP        -0.6066
     19 C2'         0.2158   -1.0724    0.0128 C.3       1 ACP         0.1185
     20 O2'         1.5141   -1.2448   -0.5513 O.3       1 ACP        -0.5858
     21 C1'        -0.7897   -1.9176   -0.7583 C.3       1 ACP         0.3826
     22 N9         -2.1040   -1.3333   -0.7704 N.pl3     1 ACP        -0.5729
     23 C8         -3.0822   -1.4850    0.1102 C.ar      1 ACP         0.3288
     24 N7         -4.1844   -0.7999   -0.1888 N.pl3     1 ACP        -0.5338
     25 C5         -3.8875   -0.1651   -1.3445 C.ar      1 ACP        -0.2581
     26 C6         -4.5941    0.6799   -2.1486 C.ar      1 ACP         0.7413
     27 N6         -5.9138    1.0274   -1.7939 N.pl3     1 ACP        -0.9512
     28 N1         -4.0421    1.1824   -3.2748 N.ar      1 ACP        -0.7699
     29 C2         -2.7637    0.7937   -3.5405 C.ar      1 ACP         0.6898
     30 N3         -1.9788   -0.0343   -2.8139 N.ar      1 ACP        -0.6800
     31 C4         -2.5915   -0.4902   -1.7174 C.ar      1 ACP         0.6129
     32 HOG3       -4.3875   -8.8659    4.6472 H         1 ACP         0.4199
     33 H3B1       -2.9283   -6.5785    7.3391 H         1 ACP         0.0672
     34 H3B2       -2.7843   -5.0855    6.4071 H         1 ACP         0.0672
     35 H5'1       -1.8599   -3.6946    2.1849 H         1 ACP         0.0277
     36 H5'2       -0.3934   -3.5881    3.1930 H         1 ACP         0.0277
     37 H4'         0.8886   -3.6447    0.8779 H         1 ACP         0.1249
     38 H3'        -0.7373   -1.2359    1.9870 H         1 ACP         0.0564
     39 HO3'        1.1626   -1.9325    3.0084 H         1 ACP         0.4511
     40 H2'        -0.0384   -0.0310    0.0096 H         1 ACP         0.0716
     41 HO2'        1.4998   -0.8412   -1.4369 H         1 ACP         0.4454
     42 H1'        -0.4769   -2.1002   -1.8093 H         1 ACP         0.1310
     43 H8         -3.0031   -2.1011    0.9891 H         1 ACP         0.3565
     44 HN61       -6.3271    0.6117   -0.9836 H         1 ACP         0.4414
     45 HN62       -6.4471    1.6092   -2.4083 H         1 ACP         0.4414
     46 H2         -2.3243    1.1986   -4.4449 H         1 ACP         0.0676
     47 H47        -5.0436   -0.7722    0.3425 H         1 ACP         0.5052
@<TRIPOS>BOND
     1    1    2 2
     2    1    3 1
     3    1    4 1
     4    1    8 1
     5    4   32 1
     6    5    6 2
     7    5    7 1
     8    5    8 1
     9    5   12 1
    10    8   33 1
    11    8   34 1
    12    9   10 2
    13    9   11 1
    14    9   12 1
    15    9   13 1
    16   13   14 1
    17   14   15 1
    18   14   35 1
    19   14   36 1
    20   15   16 1
    21   15   17 1
    22   15   37 1
    23   16   21 1
    24   17   18 1
    25   17   19 1
    26   17   38 1
    27   18   39 1
    28   19   20 1
    29   19   21 1
    30   19   40 1
    31   20   41 1
    32   21   22 1
    33   21   42 1
    34   22   23 ar
    35   22   31 ar
    36   23   24 ar
    37   23   43 1
    38   24   25 ar
    39   24   47 1
    40   25   26 ar
    41   25   31 ar
    42   26   27 1
    43   26   28 ar
    44   27   44 1
    45   27   45 1
    46   28   29 ar
    47   29   30 ar
    48   29   46 1
    49   30   31 ar
@<TRIPOS>SUBSTRUCTURE
     1 ACP         1 GROUP 0 A     ****
@<TRIPOS>MOLECULE
[[5-(6-amino-7,8-dihydropurin-8-ylium-9-yl)-3,4-dihydroxy-tetrahydrofuran-2-yl]methoxy-oxido-phosphoryl]oxy-[[hydroxy(oxido)phosphoryl]methyl]phosphinate
   47    49     1     0     0
SMALL
USER_CHARGES

@<TRIPOS>ATOM
      1 PG          6.6984    1.2034   -3.7660 P.3       1 ACP         1.3755
      2 O1G         8.0432    1.5178   -3.1532 O.co2     1 ACP        -0.8970
      3 O2G         5.4063    1.3803   -3.0022 O.co2     1 ACP        -0.8970
      4 O3G         6.5759    1.9448   -5.2135 O.3       1 ACP        -0.7959
      5 PB          5.3244   -1.3769   -5.1905 P.3       1 ACP         1.5194
      6 O1B         5.7568   -2.7849   -5.5268 O.co2     1 ACP        -0.8958
      7 O2B         4.7951   -0.4259   -6.2392 O.co2     1 ACP        -0.8958
      8 C3B         6.7513   -0.5436   -4.3636 C.3       1 ACP        -0.5612
      9 PA          2.8591   -2.1299   -3.7201 P.3       1 ACP         1.6019
     10 O1A         3.0727   -3.6280   -3.7234 O.co2     1 ACP        -0.9040
     11 O2A         1.8686   -1.4903   -4.6689 O.co2     1 ACP        -0.9040
     12 O3A         4.3077   -1.4018   -3.9162 O.3       1 ACP        -0.8156
     13 O5'         2.5237   -1.6631   -2.1889 O.3       1 ACP        -0.5465
     14 C5'         2.2816   -0.2918   -1.9206 C.3       1 ACP         0.2108
     15 C4'         2.7248    0.0226   -0.4980 C.3       1 ACP         0.0552
     16 O4'         2.4697    1.4219   -0.2462 O.3       1 ACP        -0.3428
     17 C3'         1.9404   -0.7419    0.5596 C.3       1 ACP         0.0750
     18 O3'         2.7418   -0.8086    1.7389 O.3       1 ACP        -0.6066
     19 C2'         0.7477    0.1630    0.7858 C.3       1 ACP         0.1185
     20 O2'         0.1373   -0.0577    2.0407 O.3       1 ACP        -0.5858
     21 C1'         1.3733    1.5427    0.6747 C.3       1 ACP         0.3826
     22 N9          0.4520    2.5240    0.1767 N.pl3     1 ACP        -0.5729
     23 C8         -0.8602    2.5861    0.3496 C.ar      1 ACP         0.3288
     24 N7         -1.4308    3.6326   -0.2443 N.pl3     1 ACP        -0.5338
     25 C5         -0.4080    4.2856   -0.8394 C.ar      1 ACP        -0.2581
     26 C6         -0.3432    5.4196   -1.5943 C.ar      1 ACP         0.7413
     27 N6         -1.5276    6.1333   -1.8702 N.pl3     1 ACP        -0.9512
     28 N1          0.8395    5.8603   -2.0764 N.ar      1 ACP        -0.7699
     29 C2          1.9319    5.1095   -1.7617 C.ar      1 ACP         0.6898
     30 N3          1.9773    3.9761   -1.0249 N.ar      1 ACP        -0.6800
     31 C4          0.7724    3.6031   -0.5836 C.ar      1 ACP         0.6129
     32 HOG3        6.6441    2.9228   -5.2453 H         1 ACP         0.4199
     33 H3B1        7.0053   -1.1551   -3.4907 H         1 ACP         0.0672
     34 H3B2        7.5906   -0.6094   -5.0649 H         1 ACP         0.0672
     35 H5'1        2.8429    0.3140   -2.6391 H         1 ACP         0.0277
     36 H5'2        1.2125   -0.0906   -2.0420 H         1 ACP         0.0277
     37 H4'         3.8050   -0.1388   -0.4008 H         1 ACP         0.1249
     38 H3'         1.6784   -1.7629    0.2714 H         1 ACP         0.0564
     39 HO3'        2.2232   -1.2979    2.3953 H         1 ACP         0.4511
     40 H2'        -0.0011    0.0027    0.0003 H         1 ACP         0.0716
     41 HO2'       -0.1563   -0.9855    2.0596 H         1 ACP         0.4454
     42 H1'         1.7826    1.9024    1.6451 H         1 ACP         0.1310
     43 H8         -1.4217    1.8638    0.9164 H         1 ACP         0.3565
     44 HN61       -2.4023    5.7711   -1.5477 H         1 ACP         0.4414
     45 HN62       -1.4857    6.9379   -2.4627 H         1 ACP         0.4414
     46 H2          2.8789    5.4660   -2.1503 H         1 ACP         0.0676
     47 H47        -2.4129    3.8706   -0.2402 H         1 ACP         0.5052
@<TRIPOS>BOND
     1    1    2 2
     2    1    3 1
     3    1    4 1
     4    1    8 1
     5    4   32 1
     6    5    6 2
     7    5    7 1
     8    5    8 1
     9    5   12 1
    10    8   33 1
    11    8   34 1
    12    9   10 2
    13    9   11 1
    14    9   12 1
    15    9   13 1
    16   13   14 1
    17   14   15 1
    18   14   35 1
    19   14   36 1
    20   15   16 1
    21   15   17 1
    22   15   37 1
    23   16   21 1
    24   17   18 1
    25   17   19 1
    26   17   38 1
    27   18   39 1
    28   19   20 1
    29   19   21 1
    30   19   40 1
    31   20   41 1
    32   21   22 1
    33   21   42 1
    34   22   23 ar
    35   22   31 ar
    36   23   24 ar
    37   23   43 1
    38   24   25 ar
    39   24   47 1
    40   25   26 ar
    41   25   31 ar
    42   26   27 1
    43   26   28 ar
    44   27   44 1
    45   27   45 1
    46   28   29 ar
    47   29   30 ar
    48   29   46 1
    49   30   31 ar
@<TRIPOS>SUBSTRUCTURE
     1 ACP         1 GROUP 0 A     ****
@<TRIPOS>MOLECULE
[[5-(6-amino-7,8-dihydropurin-8-ylium-9-yl)-3,4-dihydroxy-tetrahydrofuran-2-yl]methoxy-oxido-phosphoryl]oxy-[[hydroxy(oxido)phosphoryl]methyl]phosphinate
   47    49     1     0     0
SMALL
USER_CHARGES

@<TRIPOS>ATOM
      1 PG          1.6296    1.3587   -6.4075 P.3       1 ACP         1.3755
      2 O1G         2.4580    2.3352   -7.2094 O.co2     1 ACP        -0.8970
      3 O2G         1.5628    1.4114   -4.8985 O.co2     1 ACP        -0.8970
      4 O3G         0.1164    1.3062   -7.0135 O.3       1 ACP        -0.7959
      5 PB          1.4292   -1.8769   -6.1501 P.3       1 ACP         1.5194
      6 O1B         2.1270   -3.0578   -6.7835 O.co2     1 ACP        -0.8958
      7 O2B        -0.0730   -1.7149   -6.1884 O.co2     1 ACP        -0.8958
      8 C3B         2.1652   -0.3457   -6.8768 C.3       1 ACP        -0.5612
      9 PA          1.5537   -2.4539   -3.2418 P.3       1 ACP         1.6019
     10 O1A         2.0300   -3.8868   -3.3414 O.co2     1 ACP        -0.9040
     11 O2A         0.1072   -2.1427   -2.9238 O.co2     1 ACP        -0.9040
     12 O3A         1.9587   -1.6787   -4.6209 O.3       1 ACP        -0.8156
     13 O5'         2.5237   -1.6631   -2.1889 O.3       1 ACP        -0.5465
     14 C5'         2.2816   -0.2918   -1.9206 C.3       1 ACP         0.2108
     15 C4'         2.7248    0.0226   -0.4980 C.3       1 ACP         0.0552
     16 O4'         2.4697    1.4219   -0.2462 O.3       1 ACP        -0.3428
     17 C3'         1.9404   -0.7419    0.5596 C.3       1 ACP         0.0750
     18 O3'         2.7418   -0.8086    1.7389 O.3       1 ACP        -0.6066
     19 C2'         0.7477    0.1630    0.7858 C.3       1 ACP         0.1185
     20 O2'         0.1373   -0.0577    2.0407 O.3       1 ACP        -0.5858
     21 C1'         1.3733    1.5427    0.6747 C.3       1 ACP         0.3826
     22 N9          0.4520    2.5240    0.1767 N.pl3     1 ACP        -0.5729
     23 C8         -0.8602    2.5861    0.3496 C.ar      1 ACP         0.3288
     24 N7         -1.4308    3.6326   -0.2443 N.pl3     1 ACP        -0.5338
     25 C5         -0.4080    4.2856   -0.8394 C.ar      1 ACP        -0.2581
     26 C6         -0.3432    5.4196   -1.5943 C.ar      1 ACP         0.7413
     27 N6         -1.5276    6.1333   -1.8702 N.pl3     1 ACP        -0.9512
     28 N1          0.8395    5.8603   -2.0764 N.ar      1 ACP        -0.7699
     29 C2          1.9319    5.1095   -1.7617 C.ar      1 ACP         0.6898
     30 N3          1.9773    3.9761   -1.0249 N.ar      1 ACP        -0.6800
     31 C4          0.7724    3.6031   -0.5836 C.ar      1 ACP         0.6129
     32 HOG3       -0.4115    2.1328   -7.0257 H         1 ACP         0.4199
     33 H3B1        3.2411   -0.3919   -6.6748 H         1 ACP         0.0672
     34 H3B2        2.0318   -0.4285   -7.9611 H         1 ACP         0.0672
     35 H5'1        2.8429    0.3140   -2.6391 H         1 ACP         0.0277
     36 H5'2        1.2125   -0.0906   -2.0420 H         1 ACP         0.0277
     37 H4'         3.8050   -0.1388   -0.4008 H         1 ACP         0.1249
     38 H3'         1.6784   -1.7629    0.2714 H         1 ACP         0.0564
     39 HO3'        2.2232   -1.2979    2.3953 H         1 ACP         0.4511
     40 H2'        -0.0011    0.0027    0.0003 H         1 ACP         0.0716
     41 HO2'       -0.1563   -0.9855    2.0596 H         1 ACP         0.4454
     42 H1'         1.7826    1.9024    1.6451 H         1 ACP         0.1310
     43 H8         -1.4217    1.8638    0.9164 H         1 ACP         0.3565
     44 HN61       -2.4023    5.7711   -1.5477 H         1 ACP         0.4414
     45 HN62       -1.4857    6.9379   -2.4627 H         1 ACP         0.4414
     46 H2          2.8789    5.4660   -2.1503 H         1 ACP         0.0676
     47 H47        -2.4129    3.8706   -0.2402 H         1 ACP         0.5052
@<TRIPOS>BOND
     1    1    2 2
     2    1    3 1
     3    1    4 1
     4    1    8 1
     5    4   32 1
     6    5    6 2
     7    5    7 1
     8    5    8 1
     9    5   12 1
    10    8   33 1
    11    8   34 1
    12    9   10 2
    13    9   11 1
    14    9   12 1
    15    9   13 1
    16   13   14 1
    17   14   15 1
    18   14   35 1
    19   14   36 1
    20   15   16 1
    21   15   17 1
    22   15   37 1
    23   16   21 1
    24   17   18 1
    25   17   19 1
    26   17   38 1
    27   18   39 1
    28   19   20 1
    29   19   21 1
    30   19   40 1
    31   20   41 1
    32   21   22 1
    33   21   42 1
    34   22   23 ar
    35   22   31 ar
    36   23   24 ar
    37   23   43 1
    38   24   25 ar
    39   24   47 1
    40   25   26 ar
    41   25   31 ar
    42   26   27 1
    43   26   28 ar
    44   27   44 1
    45   27   45 1
    46   28   29 ar
    47   29   30 ar
    48   29   46 1
    49   30   31 ar
@<TRIPOS>SUBSTRUCTURE
     1 ACP         1 GROUP 0 A     ****
@<TRIPOS>MOLECULE
[[5-(6-amino-7,8-dihydropurin-8-ylium-9-yl)-3,4-dihydroxy-tetrahydrofuran-2-yl]methoxy-oxido-phosphoryl]oxy-[[hydroxy(oxido)phosphoryl]methyl]phosphinate
   47    49     1     0     0
SMALL
USER_CHARGES

@<TRIPOS>ATOM
      1 PG         -0.2249   -5.0266    7.0703 P.3       1 ACP         1.3755
      2 O1G        -1.1546   -5.0438    8.2611 O.co2     1 ACP        -0.8970
      3 O2G        -0.4345   -4.0928    5.9006 O.co2     1 ACP        -0.8970
      4 O3G         1.3168   -4.9058    7.5882 O.3       1 ACP        -0.7959
      5 PB          0.8717   -7.2149    4.9291 P.3       1 ACP         1.5194
      6 O1B         0.6707   -8.6938    4.6945 O.co2     1 ACP        -0.8958
      7 O2B         2.2433   -6.6102    5.1223 O.co2     1 ACP        -0.8958
      8 C3B        -0.1473   -6.7451    6.3972 C.3       1 ACP        -0.5612
      9 PA          0.1815   -6.3463    2.1767 P.3       1 ACP         1.6019
     10 O1A        -0.2700   -7.6906    1.6488 O.co2     1 ACP        -0.9040
     11 O2A         1.5393   -5.7893    1.8067 O.co2     1 ACP        -0.9040
     12 O3A         0.0550   -6.3623    3.8048 O.3       1 ACP        -0.8156
     13 O5'        -0.9728   -5.2427    1.8237 O.3       1 ACP        -0.5465
     14 C5'        -0.7840   -3.8935    2.2172 C.3       1 ACP         0.2108
     15 C4'        -0.0724   -3.1466    1.1027 C.3       1 ACP         0.0552
     16 O4'        -0.8674   -3.1929   -0.0945 O.3       1 ACP        -0.3428
     17 C3'         0.1338   -1.6715    1.4027 C.3       1 ACP         0.0750
     18 O3'         1.2893   -1.4445    2.1808 O.3       1 ACP        -0.6066
     19 C2'         0.2158   -1.0724    0.0128 C.3       1 ACP         0.1185
     20 O2'         1.5141   -1.2448   -0.5513 O.3       1 ACP        -0.5858
     21 C1'        -0.7897   -1.9176   -0.7583 C.3       1 ACP         0.3826
     22 N9         -2.1040   -1.3333   -0.7704 N.pl3     1 ACP        -0.5729
     23 C8         -3.0822   -1.4850    0.1102 C.ar      1 ACP         0.3288
     24 N7         -4.1844   -0.7999   -0.1888 N.pl3     1 ACP        -0.5338
     25 C5         -3.8875   -0.1651   -1.3445 C.ar      1 ACP        -0.2581
     26 C6         -4.5941    0.6799   -2.1486 C.ar      1 ACP         0.7413
     27 N6         -5.9138    1.0274   -1.7939 N.pl3     1 ACP        -0.9512
     28 N1         -4.0421    1.1824   -3.2748 N.ar      1 ACP        -0.7699
     29 C2         -2.7637    0.7937   -3.5405 C.ar      1 ACP         0.6898
     30 N3         -1.9788   -0.0343   -2.8139 N.ar      1 ACP        -0.6800
     31 C4         -2.5915   -0.4902   -1.7174 C.ar      1 ACP         0.6129
     32 HOG3        1.5722   -4.1205    8.1176 H         1 ACP         0.4199
     33 H3B1       -1.1799   -7.0254    6.1615 H         1 ACP         0.0672
     34 H3B2        0.1872   -7.3884    7.2186 H         1 ACP         0.0672
     35 H5'1       -1.7614   -3.4427    2.4167 H         1 ACP         0.0277
     36 H5'2       -0.1870   -3.8723    3.1344 H         1 ACP         0.0277
     37 H4'         0.8886   -3.6447    0.8779 H         1 ACP         0.1249
     38 H3'        -0.7373   -1.2359    1.9870 H         1 ACP         0.0564
     39 HO3'        1.3408   -0.4870    2.3219 H         1 ACP         0.4511
     40 H2'        -0.0384   -0.0310    0.0096 H         1 ACP         0.0716
     41 HO2'        2.1463   -0.7958    0.0370 H         1 ACP         0.4454
     42 H1'        -0.4769   -2.1002   -1.8093 H         1 ACP         0.1310
     43 H8         -3.0031   -2.1011    0.9891 H         1 ACP         0.3565
     44 HN61       -6.3271    0.6117   -0.9836 H         1 ACP         0.4414
     45 HN62       -6.4471    1.6092   -2.4083 H         1 ACP         0.4414
     46 H2         -2.3243    1.1986   -4.4449 H         1 ACP         0.0676
     47 H47        -5.0436   -0.7722    0.3425 H         1 ACP         0.5052
@<TRIPOS>BOND
     1    1    2 2
     2    1    3 1
     3    1    4 1
     4    1    8 1
     5    4   32 1
     6    5    6 2
     7    5    7 1
     8    5    8 1
     9    5   12 1
    10    8   33 1
    11    8   34 1
    12    9   10 2
    13    9   11 1
    14    9   12 1
    15    9   13 1
    16   13   14 1
    17   14   15 1
    18   14   35 1
    19   14   36 1
    20   15   16 1
    21   15   17 1
    22   15   37 1
    23   16   21 1
    24   17   18 1
    25   17   19 1
    26   17   38 1
    27   18   39 1
    28   19   20 1
    29   19   21 1
    30   19   40 1
    31   20   41 1
    32   21   22 1
    33   21   42 1
    34   22   23 ar
    35   22   31 ar
    36   23   24 ar
    37   23   43 1
    38   24   25 ar
    39   24   47 1
    40   25   26 ar
    41   25   31 ar
    42   26   27 1
    43   26   28 ar
    44   27   44 1
    45   27   45 1
    46   28   29 ar
    47   29   30 ar
    48   29   46 1
    49   30   31 ar
@<TRIPOS>SUBSTRUCTURE
     1 ACP         1 GROUP 0 A     ****
@<TRIPOS>MOLECULE
[[5-(6-amino-7,8-dihydropurin-8-ylium-9-yl)-3,4-dihydroxy-tetrahydrofuran-2-yl]methoxy-oxido-phosphoryl]oxy-[[hydroxy(oxido)phosphoryl]methyl]phosphinate
   47    49     1     0     0
SMALL
USER_CHARGES

@<TRIPOS>ATOM
      1 PG          1.7012   -2.2728    6.0222 P.3       1 ACP         1.3755
      2 O1G         2.8963   -1.3500    6.0759 O.co2     1 ACP        -0.8970
      3 O2G         1.4306   -3.1689    4.8356 O.co2     1 ACP        -0.8970
      4 O3G         1.6366   -3.1560    7.3917 O.3       1 ACP        -0.7959
      5 PB         -1.5209   -1.9440    6.3140 P.3       1 ACP         1.5194
      6 O1B        -2.4733   -0.7978    6.5629 O.co2     1 ACP        -0.8958
      7 O2B        -1.4945   -3.1732    7.1931 O.co2     1 ACP        -0.8958
      8 C3B         0.1898   -1.2462    6.2943 C.3       1 ACP        -0.5612
      9 PA         -2.6797   -3.3327    3.9613 P.3       1 ACP         1.6019
     10 O1A        -4.0096   -2.6111    3.9367 O.co2     1 ACP        -0.9040
     11 O2A        -2.5773   -4.7423    4.5027 O.co2     1 ACP        -0.9040
     12 O3A        -1.5989   -2.3960    4.7495 O.3       1 ACP        -0.8156
     13 O5'        -2.0403   -3.2809    2.4568 O.3       1 ACP        -0.5465
     14 C5'        -0.7840   -3.8935    2.2172 C.3       1 ACP         0.2108
     15 C4'        -0.0724   -3.1466    1.1027 C.3       1 ACP         0.0552
     16 O4'        -0.8674   -3.1929   -0.0945 O.3       1 ACP        -0.3428
     17 C3'         0.1338   -1.6715    1.4027 C.3       1 ACP         0.0750
     18 O3'         1.2893   -1.4445    2.1808 O.3       1 ACP        -0.6066
     19 C2'         0.2158   -1.0724    0.0128 C.3       1 ACP         0.1185
     20 O2'         1.5141   -1.2448   -0.5513 O.3       1 ACP        -0.5858
     21 C1'        -0.7897   -1.9176   -0.7583 C.3       1 ACP         0.3826
     22 N9         -2.1040   -1.3333   -0.7704 N.pl3     1 ACP        -0.5729
     23 C8         -3.2304   -1.8262   -0.2767 C.ar      1 ACP         0.3288
     24 N7         -4.2847   -1.0309   -0.4481 N.pl3     1 ACP        -0.5338
     25 C5         -3.7951    0.0479   -1.0985 C.ar      1 ACP        -0.2581
     26 C6         -4.3691    1.1983   -1.5536 C.ar      1 ACP         0.7413
     27 N6         -5.7501    1.4047   -1.3573 N.pl3     1 ACP        -0.9512
     28 N1         -3.6289    2.1345   -2.1869 N.ar      1 ACP        -0.7699
     29 C2         -2.3041    1.8525   -2.3333 C.ar      1 ACP         0.6898
     30 N3         -1.6387    0.7492   -1.9218 N.ar      1 ACP        -0.6800
     31 C4         -2.4348   -0.1293   -1.3053 C.ar      1 ACP         0.6129
     32 HOG3        2.3949   -3.7394    7.6083 H         1 ACP         0.4199
     33 H3B1        0.2024   -0.4757    5.5154 H         1 ACP         0.0672
     34 H3B2        0.3238   -0.7406    7.2571 H         1 ACP         0.0672
     35 H5'1       -0.1929   -3.8610    3.1379 H         1 ACP         0.0277
     36 H5'2       -0.9476   -4.9382    1.9344 H         1 ACP         0.0277
     37 H4'         0.8886   -3.6447    0.8779 H         1 ACP         0.1249
     38 H3'        -0.7373   -1.2359    1.9870 H         1 ACP         0.0564
     39 HO3'        1.1626   -1.9325    3.0084 H         1 ACP         0.4511
     40 H2'        -0.0384   -0.0310    0.0096 H         1 ACP         0.0716
     41 HO2'        2.1463   -0.7958    0.0370 H         1 ACP         0.4454
     42 H1'        -0.4769   -2.1002   -1.8093 H         1 ACP         0.1310
     43 H8         -3.2974   -2.7789    0.2194 H         1 ACP         0.3565
     44 HN61       -6.2956    0.6838   -0.9296 H         1 ACP         0.4414
     45 HN62       -6.1788    2.2266   -1.7327 H         1 ACP         0.4414
     46 H2         -1.7135    2.6057   -2.8421 H         1 ACP         0.0676
     47 H47        -5.2337   -1.2102   -0.1507 H         1 ACP         0.5052
@<TRIPOS>BOND
     1    1    2 2
     2    1    3 1
     3    1    4 1
     4    1    8 1
     5    4   32 1
     6    5    6 2
     7    5    7 1
     8    5    8 1
     9    5   12 1
    10    8   33 1
    11    8   34 1
    12    9   10 2
    13    9   11 1
    14    9   12 1
    15    9   13 1
    16   13   14 1
    17   14   15 1
    18   14   35 1
    19   14   36 1
    20   15   16 1
    21   15   17 1
    22   15   37 1
    23   16   21 1
    24   17   18 1
    25   17   19 1
    26   17   38 1
    27   18   39 1
    28   19   20 1
    29   19   21 1
    30   19   40 1
    31   20   41 1
    32   21   22 1
    33   21   42 1
    34   22   23 ar
    35   22   31 ar
    36   23   24 ar
    37   23   43 1
    38   24   25 ar
    39   24   47 1
    40   25   26 ar
    41   25   31 ar
    42   26   27 1
    43   26   28 ar
    44   27   44 1
    45   27   45 1
    46   28   29 ar
    47   29   30 ar
    48   29   46 1
    49   30   31 ar
@<TRIPOS>SUBSTRUCTURE
     1 ACP         1 GROUP 0 A     ****
@<TRIPOS>MOLECULE
[[5-(6-amino-7,8-dihydropurin-8-ylium-9-yl)-3,4-dihydroxy-tetrahydrofuran-2-yl]methoxy-oxido-phosphoryl]oxy-[[hydroxy(oxido)phosphoryl]methyl]phosphinate
   47    49     1     0     0
SMALL
USER_CHARGES

@<TRIPOS>ATOM
      1 PG         -2.5313   -7.4488    5.8412 P.3       1 ACP         1.3755
      2 O1G        -1.8024   -7.6161    7.1541 O.co2     1 ACP        -0.8970
      3 O2G        -1.8012   -7.3847    4.5194 O.co2     1 ACP        -0.8970
      4 O3G        -3.7303   -8.5500    5.7430 O.3       1 ACP        -0.7959
      5 PB         -2.8795   -4.2473    6.2928 P.3       1 ACP         1.5194
      6 O1B        -2.1651   -4.3011    7.6230 O.co2     1 ACP        -0.8958
      7 O2B        -3.9763   -3.2469    6.0088 O.co2     1 ACP        -0.8958
      8 C3B        -3.5734   -5.9291    5.9702 C.3       1 ACP        -0.5612
      9 PA         -0.6036   -3.1462    4.7389 P.3       1 ACP         1.6019
     10 O1A         0.4415   -3.2242    5.8304 O.co2     1 ACP        -0.9040
     11 O2A        -1.2428   -1.8231    4.3766 O.co2     1 ACP        -0.9040
     12 O3A        -1.7885   -4.2165    5.0818 O.3       1 ACP        -0.8156
     13 O5'         0.0099   -3.8403    3.3910 O.3       1 ACP        -0.5465
     14 C5'        -0.7840   -3.8935    2.2172 C.3       1 ACP         0.2108
     15 C4'        -0.0724   -3.1466    1.1027 C.3       1 ACP         0.0552
     16 O4'        -0.8674   -3.1929   -0.0945 O.3       1 ACP        -0.3428
     17 C3'         0.1338   -1.6715    1.4027 C.3       1 ACP         0.0750
     18 O3'         1.2893   -1.4445    2.1808 O.3       1 ACP        -0.6066
     19 C2'         0.2158   -1.0724    0.0128 C.3       1 ACP         0.1185
     20 O2'         1.5141   -1.2448   -0.5513 O.3       1 ACP        -0.5858
     21 C1'        -0.7897   -1.9176   -0.7583 C.3       1 ACP         0.3826
     22 N9         -2.1040   -1.3333   -0.7704 N.pl3     1 ACP        -0.5729
     23 C8         -3.0822   -1.4850    0.1102 C.ar      1 ACP         0.3288
     24 N7         -4.1844   -0.7999   -0.1888 N.pl3     1 ACP        -0.5338
     25 C5         -3.8875   -0.1651   -1.3445 C.ar      1 ACP        -0.2581
     26 C6         -4.5941    0.6799   -2.1486 C.ar      1 ACP         0.7413
     27 N6         -5.9138    1.0274   -1.7939 N.pl3     1 ACP        -0.9512
     28 N1         -4.0421    1.1824   -3.2748 N.ar      1 ACP        -0.7699
     29 C2         -2.7637    0.7937   -3.5405 C.ar      1 ACP         0.6898
     30 N3         -1.9788   -0.0343   -2.8139 N.ar      1 ACP        -0.6800
     31 C4         -2.5915   -0.4902   -1.7174 C.ar      1 ACP         0.6129
     32 HOG3       -3.4956   -9.5017    5.7807 H         1 ACP         0.4199
     33 H3B1       -4.2977   -6.1250    6.7686 H         1 ACP         0.0672
     34 H3B2       -4.1334   -5.8528    5.0316 H         1 ACP         0.0672
     35 H5'1       -0.9358   -4.9414    1.9395 H         1 ACP         0.0277
     36 H5'2       -1.7558   -3.4349    2.4258 H         1 ACP         0.0277
     37 H4'         0.8886   -3.6447    0.8779 H         1 ACP         0.1249
     38 H3'        -0.7373   -1.2359    1.9870 H         1 ACP         0.0564
     39 HO3'        1.3408   -0.4870    2.3219 H         1 ACP         0.4511
     40 H2'        -0.0384   -0.0310    0.0096 H         1 ACP         0.0716
     41 HO2'        2.1463   -0.7958    0.0370 H         1 ACP         0.4454
     42 H1'        -0.4769   -2.1002   -1.8093 H         1 ACP         0.1310
     43 H8         -3.0031   -2.1011    0.9891 H         1 ACP         0.3565
     44 HN61       -6.3271    0.6117   -0.9836 H         1 ACP         0.4414
     45 HN62       -6.4471    1.6092   -2.4083 H         1 ACP         0.4414
     46 H2         -2.3243    1.1986   -4.4449 H         1 ACP         0.0676
     47 H47        -5.0436   -0.7722    0.3425 H         1 ACP         0.5052
@<TRIPOS>BOND
     1    1    2 2
     2    1    3 1
     3    1    4 1
     4    1    8 1
     5    4   32 1
     6    5    6 2
     7    5    7 1
     8    5    8 1
     9    5   12 1
    10    8   33 1
    11    8   34 1
    12    9   10 2
    13    9   11 1
    14    9   12 1
    15    9   13 1
    16   13   14 1
    17   14   15 1
    18   14   35 1
    19   14   36 1
    20   15   16 1
    21   15   17 1
    22   15   37 1
    23   16   21 1
    24   17   18 1
    25   17   19 1
    26   17   38 1
    27   18   39 1
    28   19   20 1
    29   19   21 1
    30   19   40 1
    31   20   41 1
    32   21   22 1
    33   21   42 1
    34   22   23 ar
    35   22   31 ar
    36   23   24 ar
    37   23   43 1
    38   24   25 ar
    39   24   47 1
    40   25   26 ar
    41   25   31 ar
    42   26   27 1
    43   26   28 ar
    44   27   44 1
    45   27   45 1
    46   28   29 ar
    47   29   30 ar
    48   29   46 1
    49   30   31 ar
@<TRIPOS>SUBSTRUCTURE
     1 ACP         1 GROUP 0 A     ****
@<TRIPOS>MOLECULE
[[5-(6-amino-7,8-dihydropurin-8-ylium-9-yl)-3,4-dihydroxy-tetrahydrofuran-2-yl]methoxy-oxido-phosphoryl]oxy-[[hydroxy(oxido)phosphoryl]methyl]phosphinate
   47    49     1     0     0
SMALL
USER_CHARGES

@<TRIPOS>ATOM
      1 PG          0.1935   -3.1005   -4.9249 P.3       1 ACP         1.3755
      2 O1G        -0.7577   -2.4557   -3.9440 O.co2     1 ACP        -0.8970
      3 O2G         1.4545   -3.8035   -4.4777 O.co2     1 ACP        -0.8970
      4 O3G        -0.6426   -4.0775   -5.9281 O.3       1 ACP        -0.7959
      5 PB          1.5457   -0.2441   -5.6916 P.3       1 ACP         1.5194
      6 O1B         0.6408    0.5026   -4.7396 O.co2     1 ACP        -0.8958
      7 O2B         2.0601    0.3798   -6.9686 O.co2     1 ACP        -0.8958
      8 C3B         0.6862   -1.8129   -6.1544 C.3       1 ACP        -0.5612
      9 PA          3.9534   -0.2075   -3.9573 P.3       1 ACP         1.6019
     10 O1A         4.6225    0.8729   -4.7788 O.co2     1 ACP        -0.9040
     11 O2A         4.7732   -1.3027   -3.3100 O.co2     1 ACP        -0.9040
     12 O3A         2.7896   -0.9020   -4.8683 O.3       1 ACP        -0.8156
     13 O5'         3.0198    0.5138   -2.8245 O.3       1 ACP        -0.5465
     14 C5'         2.2816   -0.2918   -1.9206 C.3       1 ACP         0.2108
     15 C4'         2.7248    0.0226   -0.4980 C.3       1 ACP         0.0552
     16 O4'         2.4697    1.4219   -0.2462 O.3       1 ACP        -0.3428
     17 C3'         1.9404   -0.7419    0.5596 C.3       1 ACP         0.0750
     18 O3'         2.7418   -0.8086    1.7389 O.3       1 ACP        -0.6066
     19 C2'         0.7477    0.1630    0.7858 C.3       1 ACP         0.1185
     20 O2'         0.1373   -0.0577    2.0407 O.3       1 ACP        -0.5858
     21 C1'         1.3733    1.5427    0.6747 C.3       1 ACP         0.3826
     22 N9          0.4520    2.5240    0.1767 N.pl3     1 ACP        -0.5729
     23 C8         -0.8602    2.5861    0.3496 C.ar      1 ACP         0.3288
     24 N7         -1.4308    3.6326   -0.2443 N.pl3     1 ACP        -0.5338
     25 C5         -0.4080    4.2856   -0.8394 C.ar      1 ACP        -0.2581
     26 C6         -0.3432    5.4196   -1.5943 C.ar      1 ACP         0.7413
     27 N6         -1.5276    6.1333   -1.8702 N.pl3     1 ACP        -0.9512
     28 N1          0.8395    5.8603   -2.0764 N.ar      1 ACP        -0.7699
     29 C2          1.9319    5.1095   -1.7617 C.ar      1 ACP         0.6898
     30 N3          1.9773    3.9761   -1.0249 N.ar      1 ACP        -0.6800
     31 C4          0.7724    3.6031   -0.5836 C.ar      1 ACP         0.6129
     32 HOG3       -1.1480   -4.8236   -5.5407 H         1 ACP         0.4199
     33 H3B1       -0.2336   -1.5220   -6.6739 H         1 ACP         0.0672
     34 H3B2        1.3324   -2.3099   -6.8864 H         1 ACP         0.0672
     35 H5'1        1.2153   -0.0781   -2.0454 H         1 ACP         0.0277
     36 H5'2        2.4645   -1.3454   -2.1547 H         1 ACP         0.0277
     37 H4'         3.8050   -0.1388   -0.4008 H         1 ACP         0.1249
     38 H3'         1.6784   -1.7629    0.2714 H         1 ACP         0.0564
     39 HO3'        2.2232   -1.2979    2.3953 H         1 ACP         0.4511
     40 H2'        -0.0011    0.0027    0.0003 H         1 ACP         0.0716
     41 HO2'       -0.1563   -0.9855    2.0596 H         1 ACP         0.4454
     42 H1'         1.7826    1.9024    1.6451 H         1 ACP         0.1310
     43 H8         -1.4217    1.8638    0.9164 H         1 ACP         0.3565
     44 HN61       -2.4023    5.7711   -1.5477 H         1 ACP         0.4414
     45 HN62       -1.4857    6.9379   -2.4627 H         1 ACP         0.4414
     46 H2          2.8789    5.4660   -2.1503 H         1 ACP         0.0676
     47 H47        -2.4129    3.8706   -0.2402 H         1 ACP         0.5052
@<TRIPOS>BOND
     1    1    2 2
     2    1    3 1
     3    1    4 1
     4    1    8 1
     5    4   32 1
     6    5    6 2
     7    5    7 1
     8    5    8 1
     9    5   12 1
    10    8   33 1
    11    8   34 1
    12    9   10 2
    13    9   11 1
    14    9   12 1
    15    9   13 1
    16   13   14 1
    17   14   15 1
    18   14   35 1
    19   14   36 1
    20   15   16 1
    21   15   17 1
    22   15   37 1
    23   16   21 1
    24   17   18 1
    25   17   19 1
    26   17   38 1
    27   18   39 1
    28   19   20 1
    29   19   21 1
    30   19   40 1
    31   20   41 1
    32   21   22 1
    33   21   42 1
    34   22   23 ar
    35   22   31 ar
    36   23   24 ar
    37   23   43 1
    38   24   25 ar
    39   24   47 1
    40   25   26 ar
    41   25   31 ar
    42   26   27 1
    43   26   28 ar
    44   27   44 1
    45   27   45 1
    46   28   29 ar
    47   29   30 ar
    48   29   46 1
    49   30   31 ar
@<TRIPOS>SUBSTRUCTURE
     1 ACP         1 GROUP 0 A     ****
@<TRIPOS>MOLECULE
[[5-(6-amino-7,8-dihydropurin-8-ylium-9-yl)-3,4-dihydroxy-tetrahydrofuran-2-yl]methoxy-oxido-phosphoryl]oxy-[[hydroxy(oxido)phosphoryl]methyl]phosphinate
   47    49     1     0     0
SMALL
USER_CHARGES

@<TRIPOS>ATOM
      1 PG         -4.3123   -6.4589    5.0015 P.3       1 ACP         1.3755
      2 O1G        -5.6256   -6.8143    4.3444 O.co2     1 ACP        -0.8970
      3 O2G        -3.7611   -5.0517    4.9862 O.co2     1 ACP        -0.8970
      4 O3G        -4.3000   -7.0271    6.5301 O.3       1 ACP        -0.7959
      5 PB         -1.2386   -7.5009    4.7969 P.3       1 ACP         1.5194
      6 O1B        -0.5040   -8.5538    4.0005 O.co2     1 ACP        -0.8958
      7 O2B        -1.2009   -7.4629    6.3073 O.co2     1 ACP        -0.8958
      8 C3B        -3.0152   -7.5672    4.2934 C.3       1 ACP        -0.5612
      9 PA          0.5333   -5.2357    4.0646 P.3       1 ACP         1.6019
     10 O1A         1.3818   -5.9653    3.0461 O.co2     1 ACP        -0.9040
     11 O2A         1.0665   -4.9546    5.4529 O.co2     1 ACP        -0.9040
     12 O3A        -0.8914   -6.0212    4.2069 O.3       1 ACP        -0.8156
     13 O5'         0.0099   -3.8403    3.3910 O.3       1 ACP        -0.5465
     14 C5'        -0.7840   -3.8935    2.2172 C.3       1 ACP         0.2108
     15 C4'        -0.0724   -3.1466    1.1027 C.3       1 ACP         0.0552
     16 O4'        -0.8674   -3.1929   -0.0945 O.3       1 ACP        -0.3428
     17 C3'         0.1338   -1.6715    1.4027 C.3       1 ACP         0.0750
     18 O3'         1.2893   -1.4445    2.1808 O.3       1 ACP        -0.6066
     19 C2'         0.2158   -1.0724    0.0128 C.3       1 ACP         0.1185
     20 O2'         1.5141   -1.2448   -0.5513 O.3       1 ACP        -0.5858
     21 C1'        -0.7897   -1.9176   -0.7583 C.3       1 ACP         0.3826
     22 N9         -2.1040   -1.3333   -0.7704 N.pl3     1 ACP        -0.5729
     23 C8         -3.0822   -1.4850    0.1102 C.ar      1 ACP         0.3288
     24 N7         -4.1844   -0.7999   -0.1888 N.pl3     1 ACP        -0.5338
     25 C5         -3.8875   -0.1651   -1.3445 C.ar      1 ACP        -0.2581
     26 C6         -4.5941    0.6799   -2.1486 C.ar      1 ACP         0.7413
     27 N6         -5.9138    1.0274   -1.7939 N.pl3     1 ACP        -0.9512
     28 N1         -4.0421    1.1824   -3.2748 N.ar      1 ACP        -0.7699
     29 C2         -2.7637    0.7937   -3.5405 C.ar      1 ACP         0.6898
     30 N3         -1.9788   -0.0343   -2.8139 N.ar      1 ACP        -0.6800
     31 C4         -2.5915   -0.4902   -1.7174 C.ar      1 ACP         0.6129
     32 HOG3       -4.9871   -6.7082    7.1533 H         1 ACP         0.4199
     33 H3B1       -3.0375   -7.4065    3.2099 H         1 ACP         0.0672
     34 H3B2       -3.3463   -8.5951    4.4789 H         1 ACP         0.0672
     35 H5'1       -0.9358   -4.9414    1.9395 H         1 ACP         0.0277
     36 H5'2       -1.7558   -3.4349    2.4258 H         1 ACP         0.0277
     37 H4'         0.8886   -3.6447    0.8779 H         1 ACP         0.1249
     38 H3'        -0.7373   -1.2359    1.9870 H         1 ACP         0.0564
     39 HO3'        1.1626   -1.9325    3.0084 H         1 ACP         0.4511
     40 H2'        -0.0384   -0.0310    0.0096 H         1 ACP         0.0716
     41 HO2'        2.1463   -0.7958    0.0370 H         1 ACP         0.4454
     42 H1'        -0.4769   -2.1002   -1.8093 H         1 ACP         0.1310
     43 H8         -3.0031   -2.1011    0.9891 H         1 ACP         0.3565
     44 HN61       -6.3271    0.6117   -0.9836 H         1 ACP         0.4414
     45 HN62       -6.4471    1.6092   -2.4083 H         1 ACP         0.4414
     46 H2         -2.3243    1.1986   -4.4449 H         1 ACP         0.0676
     47 H47        -5.0436   -0.7722    0.3425 H         1 ACP         0.5052
@<TRIPOS>BOND
     1    1    2 2
     2    1    3 1
     3    1    4 1
     4    1    8 1
     5    4   32 1
     6    5    6 2
     7    5    7 1
     8    5    8 1
     9    5   12 1
    10    8   33 1
    11    8   34 1
    12    9   10 2
    13    9   11 1
    14    9   12 1
    15    9   13 1
    16   13   14 1
    17   14   15 1
    18   14   35 1
    19   14   36 1
    20   15   16 1
    21   15   17 1
    22   15   37 1
    23   16   21 1
    24   17   18 1
    25   17   19 1
    26   17   38 1
    27   18   39 1
    28   19   20 1
    29   19   21 1
    30   19   40 1
    31   20   41 1
    32   21   22 1
    33   21   42 1
    34   22   23 ar
    35   22   31 ar
    36   23   24 ar
    37   23   43 1
    38   24   25 ar
    39   24   47 1
    40   25   26 ar
    41   25   31 ar
    42   26   27 1
    43   26   28 ar
    44   27   44 1
    45   27   45 1
    46   28   29 ar
    47   29   30 ar
    48   29   46 1
    49   30   31 ar
@<TRIPOS>SUBSTRUCTURE
     1 ACP         1 GROUP 0 A     ****
@<TRIPOS>MOLECULE
[[5-(6-amino-7,8-dihydropurin-8-ylium-9-yl)-3,4-dihydroxy-tetrahydrofuran-2-yl]methoxy-oxido-phosphoryl]oxy-[[hydroxy(oxido)phosphoryl]methyl]phosphinate
   47    49     1     0     0
SMALL
USER_CHARGES

@<TRIPOS>ATOM
      1 PG          4.6899   -0.2182   -7.5464 P.3       1 ACP         1.3755
      2 O1G         5.0548    1.0913   -8.2058 O.co2     1 ACP        -0.8970
      3 O2G         3.2988   -0.8022   -7.6349 O.co2     1 ACP        -0.8970
      4 O3G         5.7811   -1.3568   -7.9621 O.3       1 ACP        -0.7959
      5 PB          4.8472   -1.4445   -4.5386 P.3       1 ACP         1.5194
      6 O1B         5.3187   -0.9488   -3.1915 O.co2     1 ACP        -0.8958
      7 O2B         5.3827   -2.7133   -5.1613 O.co2     1 ACP        -0.8958
      8 C3B         5.1171   -0.0797   -5.7546 C.3       1 ACP        -0.5612
      9 PA          2.1362   -2.2698   -3.6575 P.3       1 ACP         1.6019
     10 O1A         2.4953   -3.7397   -3.6734 O.co2     1 ACP        -0.9040
     11 O2A         0.7453   -1.8118   -4.0395 O.co2     1 ACP        -0.9040
     12 O3A         3.2175   -1.4646   -4.5792 O.3       1 ACP        -0.8156
     13 O5'         2.5237   -1.6631   -2.1889 O.3       1 ACP        -0.5465
     14 C5'         2.2816   -0.2918   -1.9206 C.3       1 ACP         0.2108
     15 C4'         2.7248    0.0226   -0.4980 C.3       1 ACP         0.0552
     16 O4'         2.4697    1.4219   -0.2462 O.3       1 ACP        -0.3428
     17 C3'         1.9404   -0.7419    0.5596 C.3       1 ACP         0.0750
     18 O3'         2.7418   -0.8086    1.7389 O.3       1 ACP        -0.6066
     19 C2'         0.7477    0.1630    0.7858 C.3       1 ACP         0.1185
     20 O2'         0.1373   -0.0577    2.0407 O.3       1 ACP        -0.5858
     21 C1'         1.3733    1.5427    0.6747 C.3       1 ACP         0.3826
     22 N9          0.4520    2.5240    0.1767 N.pl3     1 ACP        -0.5729
     23 C8         -0.8602    2.5861    0.3496 C.ar      1 ACP         0.3288
     24 N7         -1.4308    3.6326   -0.2443 N.pl3     1 ACP        -0.5338
     25 C5         -0.4080    4.2856   -0.8394 C.ar      1 ACP        -0.2581
     26 C6         -0.3432    5.4196   -1.5943 C.ar      1 ACP         0.7413
     27 N6         -1.5276    6.1333   -1.8702 N.pl3     1 ACP        -0.9512
     28 N1          0.8395    5.8603   -2.0764 N.ar      1 ACP        -0.7699
     29 C2          1.9319    5.1095   -1.7617 C.ar      1 ACP         0.6898
     30 N3          1.9773    3.9761   -1.0249 N.ar      1 ACP        -0.6800
     31 C4          0.7724    3.6031   -0.5836 C.ar      1 ACP         0.6129
     32 HOG3        5.8899   -1.5756   -8.9121 H         1 ACP         0.4199
     33 H3B1        4.5635    0.7872   -5.3770 H         1 ACP         0.0672
     34 H3B2        6.1837    0.1660   -5.7050 H         1 ACP         0.0672
     35 H5'1        2.8429    0.3140   -2.6391 H         1 ACP         0.0277
     36 H5'2        1.2125   -0.0906   -2.0420 H         1 ACP         0.0277
     37 H4'         3.8050   -0.1388   -0.4008 H         1 ACP         0.1249
     38 H3'         1.6784   -1.7629    0.2714 H         1 ACP         0.0564
     39 HO3'        2.2232   -1.2979    2.3953 H         1 ACP         0.4511
     40 H2'        -0.0011    0.0027    0.0003 H         1 ACP         0.0716
     41 HO2'       -0.1563   -0.9855    2.0596 H         1 ACP         0.4454
     42 H1'         1.7826    1.9024    1.6451 H         1 ACP         0.1310
     43 H8         -1.4217    1.8638    0.9164 H         1 ACP         0.3565
     44 HN61       -2.4023    5.7711   -1.5477 H         1 ACP         0.4414
     45 HN62       -1.4857    6.9379   -2.4627 H         1 ACP         0.4414
     46 H2          2.8789    5.4660   -2.1503 H         1 ACP         0.0676
     47 H47        -2.4129    3.8706   -0.2402 H         1 ACP         0.5052
@<TRIPOS>BOND
     1    1    2 2
     2    1    3 1
     3    1    4 1
     4    1    8 1
     5    4   32 1
     6    5    6 2
     7    5    7 1
     8    5    8 1
     9    5   12 1
    10    8   33 1
    11    8   34 1
    12    9   10 2
    13    9   11 1
    14    9   12 1
    15    9   13 1
    16   13   14 1
    17   14   15 1
    18   14   35 1
    19   14   36 1
    20   15   16 1
    21   15   17 1
    22   15   37 1
    23   16   21 1
    24   17   18 1
    25   17   19 1
    26   17   38 1
    27   18   39 1
    28   19   20 1
    29   19   21 1
    30   19   40 1
    31   20   41 1
    32   21   22 1
    33   21   42 1
    34   22   23 ar
    35   22   31 ar
    36   23   24 ar
    37   23   43 1
    38   24   25 ar
    39   24   47 1
    40   25   26 ar
    41   25   31 ar
    42   26   27 1
    43   26   28 ar
    44   27   44 1
    45   27   45 1
    46   28   29 ar
    47   29   30 ar
    48   29   46 1
    49   30   31 ar
@<TRIPOS>SUBSTRUCTURE
     1 ACP         1 GROUP 0 A     ****
@<TRIPOS>MOLECULE
[[5-(6-amino-7,8-dihydropurin-8-ylium-9-yl)-3,4-dihydroxy-tetrahydrofuran-2-yl]methoxy-oxido-phosphoryl]oxy-[[hydroxy(oxido)phosphoryl]methyl]phosphinate
   47    49     1     0     0
SMALL
USER_CHARGES

@<TRIPOS>ATOM
      1 PG          3.9468   -4.5744   -1.2258 P.3       1 ACP         1.3755
      2 O1G         4.0378   -6.0763   -1.0889 O.co2     1 ACP        -0.8970
      3 O2G         2.6726   -3.8821   -1.6517 O.co2     1 ACP        -0.8970
      4 O3G         4.5157   -3.8712    0.1314 O.3       1 ACP        -0.7959
      5 PB          5.5620   -2.2740   -2.8611 P.3       1 ACP         1.5194
      6 O1B         6.7324   -2.2453   -3.8161 O.co2     1 ACP        -0.8958
      7 O2B         5.5410   -1.4567   -1.5899 O.co2     1 ACP        -0.8958
      8 C3B         5.2808   -4.0370   -2.3851 C.3       1 ACP        -0.5612
      9 PA          3.4821   -0.6660   -4.2377 P.3       1 ACP         1.6019
     10 O1A         2.1119   -1.0079   -4.7812 O.co2     1 ACP        -0.9040
     11 O2A         4.4908    0.0668   -5.0956 O.co2     1 ACP        -0.9040
     12 O3A         4.1739   -2.0373   -3.6828 O.3       1 ACP        -0.8156
     13 O5'         3.2883    0.1336   -2.8242 O.3       1 ACP        -0.5465
     14 C5'         2.2816   -0.2918   -1.9206 C.3       1 ACP         0.2108
     15 C4'         2.7248    0.0226   -0.4980 C.3       1 ACP         0.0552
     16 O4'         2.4697    1.4219   -0.2462 O.3       1 ACP        -0.3428
     17 C3'         1.9404   -0.7419    0.5596 C.3       1 ACP         0.0750
     18 O3'         2.7418   -0.8086    1.7389 O.3       1 ACP        -0.6066
     19 C2'         0.7477    0.1630    0.7858 C.3       1 ACP         0.1185
     20 O2'         0.1373   -0.0577    2.0407 O.3       1 ACP        -0.5858
     21 C1'         1.3733    1.5427    0.6747 C.3       1 ACP         0.3826
     22 N9          0.4520    2.5240    0.1767 N.pl3     1 ACP        -0.5729
     23 C8         -0.8602    2.5861    0.3496 C.ar      1 ACP         0.3288
     24 N7         -1.4308    3.6326   -0.2443 N.pl3     1 ACP        -0.5338
     25 C5         -0.4080    4.2856   -0.8394 C.ar      1 ACP        -0.2581
     26 C6         -0.3432    5.4196   -1.5943 C.ar      1 ACP         0.7413
     27 N6         -1.5276    6.1333   -1.8702 N.pl3     1 ACP        -0.9512
     28 N1          0.8395    5.8603   -2.0764 N.ar      1 ACP        -0.7699
     29 C2          1.9319    5.1095   -1.7617 C.ar      1 ACP         0.6898
     30 N3          1.9773    3.9761   -1.0249 N.ar      1 ACP        -0.6800
     31 C4          0.7724    3.6031   -0.5836 C.ar      1 ACP         0.6129
     32 HOG3        4.0736   -4.0731    0.9834 H         1 ACP         0.4199
     33 H3B1        5.1123   -4.5877   -3.3172 H         1 ACP         0.0672
     34 H3B2        6.2263   -4.3927   -1.9609 H         1 ACP         0.0672
     35 H5'1        1.3500    0.2325   -2.1560 H         1 ACP         0.0277
     36 H5'2        2.1267   -1.3683   -2.0444 H         1 ACP         0.0277
     37 H4'         3.8050   -0.1388   -0.4008 H         1 ACP         0.1249
     38 H3'         1.6784   -1.7629    0.2714 H         1 ACP         0.0564
     39 HO3'        2.2232   -1.2979    2.3953 H         1 ACP         0.4511
     40 H2'        -0.0011    0.0027    0.0003 H         1 ACP         0.0716
     41 HO2'       -0.1563   -0.9855    2.0596 H         1 ACP         0.4454
     42 H1'         1.7826    1.9024    1.6451 H         1 ACP         0.1310
     43 H8         -1.4217    1.8638    0.9164 H         1 ACP         0.3565
     44 HN61       -2.4023    5.7711   -1.5477 H         1 ACP         0.4414
     45 HN62       -1.4857    6.9379   -2.4627 H         1 ACP         0.4414
     46 H2          2.8789    5.4660   -2.1503 H         1 ACP         0.0676
     47 H47        -2.4129    3.8706   -0.2402 H         1 ACP         0.5052
@<TRIPOS>BOND
     1    1    2 2
     2    1    3 1
     3    1    4 1
     4    1    8 1
     5    4   32 1
     6    5    6 2
     7    5    7 1
     8    5    8 1
     9    5   12 1
    10    8   33 1
    11    8   34 1
    12    9   10 2
    13    9   11 1
    14    9   12 1
    15    9   13 1
    16   13   14 1
    17   14   15 1
    18   14   35 1
    19   14   36 1
    20   15   16 1
    21   15   17 1
    22   15   37 1
    23   16   21 1
    24   17   18 1
    25   17   19 1
    26   17   38 1
    27   18   39 1
    28   19   20 1
    29   19   21 1
    30   19   40 1
    31   20   41 1
    32   21   22 1
    33   21   42 1
    34   22   23 ar
    35   22   31 ar
    36   23   24 ar
    37   23   43 1
    38   24   25 ar
    39   24   47 1
    40   25   26 ar
    41   25   31 ar
    42   26   27 1
    43   26   28 ar
    44   27   44 1
    45   27   45 1
    46   28   29 ar
    47   29   30 ar
    48   29   46 1
    49   30   31 ar
@<TRIPOS>SUBSTRUCTURE
     1 ACP         1 GROUP 0 A     ****
@<TRIPOS>MOLECULE
[[5-(6-amino-7,8-dihydropurin-8-ylium-9-yl)-3,4-dihydroxy-tetrahydrofuran-2-yl]methoxy-oxido-phosphoryl]oxy-[[hydroxy(oxido)phosphoryl]methyl]phosphinate
   47    49     1     0     0
SMALL
USER_CHARGES

@<TRIPOS>ATOM
      1 PG         -2.0685   -2.8004    0.1231 P.3       1 ACP         1.3755
      2 O1G        -2.9652   -2.0906    1.1105 O.co2     1 ACP        -0.8970
      3 O2G        -0.5809   -2.9447    0.3482 O.co2     1 ACP        -0.8970
      4 O3G        -2.7044   -4.2589   -0.2351 O.3       1 ACP        -0.7959
      5 PB         -1.4067   -2.5274   -3.0491 P.3       1 ACP         1.5194
      6 O1B        -1.8650   -1.6324   -4.1767 O.co2     1 ACP        -0.8958
      7 O2B        -1.5067   -4.0335   -3.1262 O.co2     1 ACP        -0.8958
      8 C3B        -2.3019   -1.9951   -1.5228 C.3       1 ACP        -0.5612
      9 PA          1.5537   -2.4539   -3.2418 P.3       1 ACP         1.6019
     10 O1A         1.6507   -1.7650   -4.5856 O.co2     1 ACP        -0.9040
     11 O2A         1.7895   -3.9440   -3.1206 O.co2     1 ACP        -0.9040
     12 O3A         0.0988   -2.1054   -2.5871 O.3       1 ACP        -0.8156
     13 O5'         2.5237   -1.6631   -2.1889 O.3       1 ACP        -0.5465
     14 C5'         2.2816   -0.2918   -1.9206 C.3       1 ACP         0.2108
     15 C4'         2.7248    0.0226   -0.4980 C.3       1 ACP         0.0552
     16 O4'         2.4697    1.4219   -0.2462 O.3       1 ACP        -0.3428
     17 C3'         1.9404   -0.7419    0.5596 C.3       1 ACP         0.0750
     18 O3'         2.7418   -0.8086    1.7389 O.3       1 ACP        -0.6066
     19 C2'         0.7477    0.1630    0.7858 C.3       1 ACP         0.1185
     20 O2'         0.1373   -0.0577    2.0407 O.3       1 ACP        -0.5858
     21 C1'         1.3733    1.5427    0.6747 C.3       1 ACP         0.3826
     22 N9          0.4520    2.5240    0.1767 N.pl3     1 ACP        -0.5729
     23 C8         -0.3477    3.3274    0.8626 C.ar      1 ACP         0.3288
     24 N7         -1.0836    4.1323    0.0983 N.pl3     1 ACP        -0.5338
     25 C5         -0.7273    3.8194   -1.1674 C.ar      1 ACP        -0.2581
     26 C6         -1.1208    4.2877   -2.3863 C.ar      1 ACP         0.7413
     27 N6         -2.0932    5.3066   -2.4528 N.pl3     1 ACP        -0.9512
     28 N1         -0.5892    3.7853   -3.5223 N.ar      1 ACP        -0.7699
     29 C2          0.3427    2.8040   -3.3648 C.ar      1 ACP         0.6898
     30 N3          0.8012    2.2709   -2.2093 N.ar      1 ACP        -0.6800
     31 C4          0.2307    2.8167   -1.1312 C.ar      1 ACP         0.6129
     32 HOG3       -2.8363   -4.9032    0.4927 H         1 ACP         0.4199
     33 H3B1       -2.0661   -0.9350   -1.3779 H         1 ACP         0.0672
     34 H3B2       -3.3701   -2.0639   -1.7565 H         1 ACP         0.0672
     35 H5'1        2.8429    0.3140   -2.6391 H         1 ACP         0.0277
     36 H5'2        1.2125   -0.0906   -2.0420 H         1 ACP         0.0277
     37 H4'         3.8050   -0.1388   -0.4008 H         1 ACP         0.1249
     38 H3'         1.6784   -1.7629    0.2714 H         1 ACP         0.0564
     39 HO3'        2.2232   -1.2979    2.3953 H         1 ACP         0.4511
     40 H2'        -0.0011    0.0027    0.0003 H         1 ACP         0.0716
     41 HO2'       -0.6141    0.5574    2.1082 H         1 ACP         0.4454
     42 H1'         1.7826    1.9024    1.6451 H         1 ACP         0.1310
     43 H8         -0.4040    3.3373    1.9373 H         1 ACP         0.3565
     44 HN61       -2.5133    5.6366   -1.6073 H         1 ACP         0.4414
     45 HN62       -2.4153    5.6161   -3.3477 H         1 ACP         0.4414
     46 H2          0.7668    2.4032   -4.2782 H         1 ACP         0.0676
     47 H47        -1.7549    4.8194    0.4122 H         1 ACP         0.5052
@<TRIPOS>BOND
     1    1    2 2
     2    1    3 1
     3    1    4 1
     4    1    8 1
     5    4   32 1
     6    5    6 2
     7    5    7 1
     8    5    8 1
     9    5   12 1
    10    8   33 1
    11    8   34 1
    12    9   10 2
    13    9   11 1
    14    9   12 1
    15    9   13 1
    16   13   14 1
    17   14   15 1
    18   14   35 1
    19   14   36 1
    20   15   16 1
    21   15   17 1
    22   15   37 1
    23   16   21 1
    24   17   18 1
    25   17   19 1
    26   17   38 1
    27   18   39 1
    28   19   20 1
    29   19   21 1
    30   19   40 1
    31   20   41 1
    32   21   22 1
    33   21   42 1
    34   22   23 ar
    35   22   31 ar
    36   23   24 ar
    37   23   43 1
    38   24   25 ar
    39   24   47 1
    40   25   26 ar
    41   25   31 ar
    42   26   27 1
    43   26   28 ar
    44   27   44 1
    45   27   45 1
    46   28   29 ar
    47   29   30 ar
    48   29   46 1
    49   30   31 ar
@<TRIPOS>SUBSTRUCTURE
     1 ACP         1 GROUP 0 A     ****
@<TRIPOS>MOLECULE
[[5-(6-amino-7,8-dihydropurin-8-ylium-9-yl)-3,4-dihydroxy-tetrahydrofuran-2-yl]methoxy-oxido-phosphoryl]oxy-[[hydroxy(oxido)phosphoryl]methyl]phosphinate
   47    49     1     0     0
SMALL
USER_CHARGES

@<TRIPOS>ATOM
      1 PG          2.8096   -3.1830   -5.4755 P.3       1 ACP         1.3755
      2 O1G         3.1775   -1.7293   -5.6609 O.co2     1 ACP        -0.8970
      3 O2G         3.2825   -4.2589   -6.4258 O.co2     1 ACP        -0.8970
      4 O3G         3.1378   -3.6338   -3.9429 O.3       1 ACP        -0.7959
      5 PB         -0.0444   -2.4223   -4.1150 P.3       1 ACP         1.5194
      6 O1B         0.3981   -2.9391   -2.7659 O.co2     1 ACP        -0.8958
      7 O2B        -1.4859   -2.4810   -4.5655 O.co2     1 ACP        -0.8958
      8 C3B         0.9671   -3.2875   -5.3966 C.3       1 ACP        -0.5612
      9 PA          0.3066    0.4590   -3.4972 P.3       1 ACP         1.6019
     10 O1A        -1.1822    0.6875   -3.3518 O.co2     1 ACP        -0.9040
     11 O2A         1.1988    1.5353   -4.0768 O.co2     1 ACP        -0.9040
     12 O3A         0.5368   -0.9168   -4.3464 O.3       1 ACP        -0.8156
     13 O5'         0.8970   -0.0132   -2.0468 O.3       1 ACP        -0.5465
     14 C5'         2.2816   -0.2918   -1.9206 C.3       1 ACP         0.2108
     15 C4'         2.7248    0.0226   -0.4980 C.3       1 ACP         0.0552
     16 O4'         2.4697    1.4219   -0.2462 O.3       1 ACP        -0.3428
     17 C3'         1.9404   -0.7419    0.5596 C.3       1 ACP         0.0750
     18 O3'         2.7418   -0.8086    1.7389 O.3       1 ACP        -0.6066
     19 C2'         0.7477    0.1630    0.7858 C.3       1 ACP         0.1185
     20 O2'         0.1373   -0.0577    2.0407 O.3       1 ACP        -0.5858
     21 C1'         1.3733    1.5427    0.6747 C.3       1 ACP         0.3826
     22 N9          0.4520    2.5240    0.1767 N.pl3     1 ACP        -0.5729
     23 C8          0.5305    3.2394   -0.9358 C.ar      1 ACP         0.3288
     24 N7         -0.4966    4.0680   -1.1145 N.pl3     1 ACP        -0.5338
     25 C5         -1.2879    3.8664   -0.0375 C.ar      1 ACP        -0.2581
     26 C6         -2.4754    4.4084    0.3577 C.ar      1 ACP         0.7413
     27 N6         -3.0892    5.3882   -0.4495 N.pl3     1 ACP        -0.9512
     28 N1         -3.0632    4.0158    1.5092 N.ar      1 ACP        -0.7699
     29 C2         -2.4008    3.0654    2.2262 C.ar      1 ACP         0.6898
     30 N3         -1.2259    2.4663    1.9260 N.ar      1 ACP        -0.6800
     31 C4         -0.7062    2.9047    0.7757 C.ar      1 ACP         0.6129
     32 HOG3        4.0627   -3.5660   -3.6232 H         1 ACP         0.4199
     33 H3B1        0.7271   -4.3534   -5.3147 H         1 ACP         0.0672
     34 H3B2        0.5919   -2.9409   -6.3659 H         1 ACP         0.0672
     35 H5'1        2.4525   -1.3484   -2.1500 H         1 ACP         0.0277
     36 H5'2        2.8335    0.3232   -2.6384 H         1 ACP         0.0277
     37 H4'         3.8050   -0.1388   -0.4008 H         1 ACP         0.1249
     38 H3'         1.6784   -1.7629    0.2714 H         1 ACP         0.0564
     39 HO3'        2.2232   -1.2979    2.3953 H         1 ACP         0.4511
     40 H2'        -0.0011    0.0027    0.0003 H         1 ACP         0.0716
     41 HO2'       -0.1563   -0.9855    2.0596 H         1 ACP         0.4454
     42 H1'         1.7826    1.9024    1.6451 H         1 ACP         0.1310
     43 H8          1.3437    3.1645   -1.6367 H         1 ACP         0.3565
     44 HN61       -2.6210    5.7042   -1.2748 H         1 ACP         0.4414
     45 HN62       -3.9356    5.8187   -0.1356 H         1 ACP         0.4414
     46 H2         -2.8752    2.7532    3.1495 H         1 ACP         0.0676
     47 H47        -0.6372    4.7004   -1.8900 H         1 ACP         0.5052
@<TRIPOS>BOND
     1    1    2 2
     2    1    3 1
     3    1    4 1
     4    1    8 1
     5    4   32 1
     6    5    6 2
     7    5    7 1
     8    5    8 1
     9    5   12 1
    10    8   33 1
    11    8   34 1
    12    9   10 2
    13    9   11 1
    14    9   12 1
    15    9   13 1
    16   13   14 1
    17   14   15 1
    18   14   35 1
    19   14   36 1
    20   15   16 1
    21   15   17 1
    22   15   37 1
    23   16   21 1
    24   17   18 1
    25   17   19 1
    26   17   38 1
    27   18   39 1
    28   19   20 1
    29   19   21 1
    30   19   40 1
    31   20   41 1
    32   21   22 1
    33   21   42 1
    34   22   23 ar
    35   22   31 ar
    36   23   24 ar
    37   23   43 1
    38   24   25 ar
    39   24   47 1
    40   25   26 ar
    41   25   31 ar
    42   26   27 1
    43   26   28 ar
    44   27   44 1
    45   27   45 1
    46   28   29 ar
    47   29   30 ar
    48   29   46 1
    49   30   31 ar
@<TRIPOS>SUBSTRUCTURE
     1 ACP         1 GROUP 0 A     ****
@<TRIPOS>MOLECULE
[[5-(6-amino-7,8-dihydropurin-8-ylium-9-yl)-3,4-dihydroxy-tetrahydrofuran-2-yl]methoxy-oxido-phosphoryl]oxy-[[hydroxy(oxido)phosphoryl]methyl]phosphinate
   47    49     1     0     0
SMALL
USER_CHARGES

@<TRIPOS>ATOM
      1 PG         -4.6794   -5.0353    4.4073 P.3       1 ACP         1.3755
      2 O1G        -4.5707   -5.6324    3.0236 O.co2     1 ACP        -0.8970
      3 O2G        -4.4501   -3.5644    4.6679 O.co2     1 ACP        -0.8970
      4 O3G        -6.0919   -5.4898    5.0841 O.3       1 ACP        -0.7959
      5 PB         -1.7142   -6.0833    5.2344 P.3       1 ACP         1.5194
      6 O1B        -1.5010   -6.7198    3.8808 O.co2     1 ACP        -0.8958
      7 O2B        -1.0995   -6.6479    6.4945 O.co2     1 ACP        -0.8958
      8 C3B        -3.5376   -5.9762    5.5133 C.3       1 ACP        -0.5612
      9 PA         -0.0423   -3.6822    4.7382 P.3       1 ACP         1.6019
     10 O1A         1.0939   -4.2031    5.5910 O.co2     1 ACP        -0.9040
     11 O2A        -0.3544   -2.2021    4.6900 O.co2     1 ACP        -0.9040
     12 O3A        -1.4044   -4.4851    5.1471 O.3       1 ACP        -0.8156
     13 O5'         0.1597   -4.2446    3.2157 O.3       1 ACP        -0.5465
     14 C5'        -0.7840   -3.8935    2.2172 C.3       1 ACP         0.2108
     15 C4'        -0.0724   -3.1466    1.1027 C.3       1 ACP         0.0552
     16 O4'        -0.8674   -3.1929   -0.0945 O.3       1 ACP        -0.3428
     17 C3'         0.1338   -1.6715    1.4027 C.3       1 ACP         0.0750
     18 O3'         1.2893   -1.4445    2.1808 O.3       1 ACP        -0.6066
     19 C2'         0.2158   -1.0724    0.0128 C.3       1 ACP         0.1185
     20 O2'         1.5141   -1.2448   -0.5513 O.3       1 ACP        -0.5858
     21 C1'        -0.7897   -1.9176   -0.7583 C.3       1 ACP         0.3826
     22 N9         -2.1040   -1.3333   -0.7704 N.pl3     1 ACP        -0.5729
     23 C8         -3.0822   -1.4850    0.1102 C.ar      1 ACP         0.3288
     24 N7         -4.1844   -0.7999   -0.1888 N.pl3     1 ACP        -0.5338
     25 C5         -3.8875   -0.1651   -1.3445 C.ar      1 ACP        -0.2581
     26 C6         -4.5941    0.6799   -2.1486 C.ar      1 ACP         0.7413
     27 N6         -5.9138    1.0274   -1.7939 N.pl3     1 ACP        -0.9512
     28 N1         -4.0421    1.1824   -3.2748 N.ar      1 ACP        -0.7699
     29 C2         -2.7637    0.7937   -3.5405 C.ar      1 ACP         0.6898
     30 N3         -1.9788   -0.0343   -2.8139 N.ar      1 ACP        -0.6800
     31 C4         -2.5915   -0.4902   -1.7174 C.ar      1 ACP         0.6129
     32 HOG3       -6.9276   -5.2389    4.6359 H         1 ACP         0.4199
     33 H3B1       -3.9108   -7.0062    5.5288 H         1 ACP         0.0672
     34 H3B2       -3.6682   -5.5654    6.5206 H         1 ACP         0.0672
     35 H5'1       -1.2472   -4.8069    1.8308 H         1 ACP         0.0277
     36 H5'2       -1.5578   -3.2634    2.6671 H         1 ACP         0.0277
     37 H4'         0.8886   -3.6447    0.8779 H         1 ACP         0.1249
     38 H3'        -0.7373   -1.2359    1.9870 H         1 ACP         0.0564
     39 HO3'        1.3408   -0.4870    2.3219 H         1 ACP         0.4511
     40 H2'        -0.0384   -0.0310    0.0096 H         1 ACP         0.0716
     41 HO2'        2.1463   -0.7958    0.0370 H         1 ACP         0.4454
     42 H1'        -0.4769   -2.1002   -1.8093 H         1 ACP         0.1310
     43 H8         -3.0031   -2.1011    0.9891 H         1 ACP         0.3565
     44 HN61       -6.3271    0.6117   -0.9836 H         1 ACP         0.4414
     45 HN62       -6.4471    1.6092   -2.4083 H         1 ACP         0.4414
     46 H2         -2.3243    1.1986   -4.4449 H         1 ACP         0.0676
     47 H47        -5.0436   -0.7722    0.3425 H         1 ACP         0.5052
@<TRIPOS>BOND
     1    1    2 2
     2    1    3 1
     3    1    4 1
     4    1    8 1
     5    4   32 1
     6    5    6 2
     7    5    7 1
     8    5    8 1
     9    5   12 1
    10    8   33 1
    11    8   34 1
    12    9   10 2
    13    9   11 1
    14    9   12 1
    15    9   13 1
    16   13   14 1
    17   14   15 1
    18   14   35 1
    19   14   36 1
    20   15   16 1
    21   15   17 1
    22   15   37 1
    23   16   21 1
    24   17   18 1
    25   17   19 1
    26   17   38 1
    27   18   39 1
    28   19   20 1
    29   19   21 1
    30   19   40 1
    31   20   41 1
    32   21   22 1
    33   21   42 1
    34   22   23 ar
    35   22   31 ar
    36   23   24 ar
    37   23   43 1
    38   24   25 ar
    39   24   47 1
    40   25   26 ar
    41   25   31 ar
    42   26   27 1
    43   26   28 ar
    44   27   44 1
    45   27   45 1
    46   28   29 ar
    47   29   30 ar
    48   29   46 1
    49   30   31 ar
@<TRIPOS>SUBSTRUCTURE
     1 ACP         1 GROUP 0 A     ****
@<TRIPOS>MOLECULE
[[5-(6-amino-7,8-dihydropurin-8-ylium-9-yl)-3,4-dihydroxy-tetrahydrofuran-2-yl]methoxy-oxido-phosphoryl]oxy-[[hydroxy(oxido)phosphoryl]methyl]phosphinate
   47    49     1     0     0
SMALL
USER_CHARGES

@<TRIPOS>ATOM
      1 PG          1.2236   -3.5229    6.3919 P.3       1 ACP         1.3755
      2 O1G         1.4736   -3.1738    7.8405 O.co2     1 ACP        -0.8970
      3 O2G        -0.0853   -3.2096    5.7042 O.co2     1 ACP        -0.8970
      4 O3G         2.4582   -2.9705    5.4806 O.3       1 ACP        -0.7959
      5 PB          1.3521   -6.2215    4.5819 P.3       1 ACP         1.5194
      6 O1B         1.6889   -7.6738    4.8273 O.co2     1 ACP        -0.8958
      7 O2B         2.0617   -5.3975    3.5322 O.co2     1 ACP        -0.8958
      8 C3B         1.5324   -5.3331    6.1919 C.3       1 ACP        -0.5612
      9 PA         -1.2314   -6.3276    3.1254 P.3       1 ACP         1.6019
     10 O1A        -2.6228   -5.8393    3.4649 O.co2     1 ACP        -0.9040
     11 O2A        -1.0069   -7.7472    2.6513 O.co2     1 ACP        -0.9040
     12 O3A        -0.2601   -6.0511    4.4088 O.3       1 ACP        -0.8156
     13 O5'        -0.5697   -5.2855    2.0524 O.3       1 ACP        -0.5465
     14 C5'        -0.7840   -3.8935    2.2172 C.3       1 ACP         0.2108
     15 C4'        -0.0724   -3.1466    1.1027 C.3       1 ACP         0.0552
     16 O4'        -0.8674   -3.1929   -0.0945 O.3       1 ACP        -0.3428
     17 C3'         0.1338   -1.6715    1.4027 C.3       1 ACP         0.0750
     18 O3'         1.2893   -1.4445    2.1808 O.3       1 ACP        -0.6066
     19 C2'         0.2158   -1.0724    0.0128 C.3       1 ACP         0.1185
     20 O2'         1.5141   -1.2448   -0.5513 O.3       1 ACP        -0.5858
     21 C1'        -0.7897   -1.9176   -0.7583 C.3       1 ACP         0.3826
     22 N9         -2.1040   -1.3333   -0.7704 N.pl3     1 ACP        -0.5729
     23 C8         -3.2304   -1.8262   -0.2767 C.ar      1 ACP         0.3288
     24 N7         -4.2847   -1.0309   -0.4481 N.pl3     1 ACP        -0.5338
     25 C5         -3.7951    0.0479   -1.0985 C.ar      1 ACP        -0.2581
     26 C6         -4.3691    1.1983   -1.5536 C.ar      1 ACP         0.7413
     27 N6         -5.7501    1.4047   -1.3573 N.pl3     1 ACP        -0.9512
     28 N1         -3.6289    2.1345   -2.1869 N.ar      1 ACP        -0.7699
     29 C2         -2.3041    1.8525   -2.3333 C.ar      1 ACP         0.6898
     30 N3         -1.6387    0.7492   -1.9218 N.ar      1 ACP        -0.6800
     31 C4         -2.4348   -0.1293   -1.3053 C.ar      1 ACP         0.6129
     32 HOG3        2.6436   -2.0072    5.4785 H         1 ACP         0.4199
     33 H3B1        0.8640   -5.8348    6.9005 H         1 ACP         0.0672
     34 H3B2        2.5599   -5.5143    6.5265 H         1 ACP         0.0672
     35 H5'1       -1.8599   -3.6946    2.1849 H         1 ACP         0.0277
     36 H5'2       -0.3934   -3.5881    3.1930 H         1 ACP         0.0277
     37 H4'         0.8886   -3.6447    0.8779 H         1 ACP         0.1249
     38 H3'        -0.7373   -1.2359    1.9870 H         1 ACP         0.0564
     39 HO3'        1.1626   -1.9325    3.0084 H         1 ACP         0.4511
     40 H2'        -0.0384   -0.0310    0.0096 H         1 ACP         0.0716
     41 HO2'        1.4998   -0.8412   -1.4369 H         1 ACP         0.4454
     42 H1'        -0.4769   -2.1002   -1.8093 H         1 ACP         0.1310
     43 H8         -3.2974   -2.7789    0.2194 H         1 ACP         0.3565
     44 HN61       -6.2956    0.6838   -0.9296 H         1 ACP         0.4414
     45 HN62       -6.1788    2.2266   -1.7327 H         1 ACP         0.4414
     46 H2         -1.7135    2.6057   -2.8421 H         1 ACP         0.0676
     47 H47        -5.2337   -1.2102   -0.1507 H         1 ACP         0.5052
@<TRIPOS>BOND
     1    1    2 2
     2    1    3 1
     3    1    4 1
     4    1    8 1
     5    4   32 1
     6    5    6 2
     7    5    7 1
     8    5    8 1
     9    5   12 1
    10    8   33 1
    11    8   34 1
    12    9   10 2
    13    9   11 1
    14    9   12 1
    15    9   13 1
    16   13   14 1
    17   14   15 1
    18   14   35 1
    19   14   36 1
    20   15   16 1
    21   15   17 1
    22   15   37 1
    23   16   21 1
    24   17   18 1
    25   17   19 1
    26   17   38 1
    27   18   39 1
    28   19   20 1
    29   19   21 1
    30   19   40 1
    31   20   41 1
    32   21   22 1
    33   21   42 1
    34   22   23 ar
    35   22   31 ar
    36   23   24 ar
    37   23   43 1
    38   24   25 ar
    39   24   47 1
    40   25   26 ar
    41   25   31 ar
    42   26   27 1
    43   26   28 ar
    44   27   44 1
    45   27   45 1
    46   28   29 ar
    47   29   30 ar
    48   29   46 1
    49   30   31 ar
@<TRIPOS>SUBSTRUCTURE
     1 ACP         1 GROUP 0 A     ****
@<TRIPOS>MOLECULE
[[5-(6-amino-7,8-dihydropurin-8-ylium-9-yl)-3,4-dihydroxy-tetrahydrofuran-2-yl]methoxy-oxido-phosphoryl]oxy-[[hydroxy(oxido)phosphoryl]methyl]phosphinate
   47    49     1     0     0
SMALL
USER_CHARGES

@<TRIPOS>ATOM
      1 PG          3.5883    2.4930   -5.5049 P.3       1 ACP         1.3755
      2 O1G         4.1232    1.4259   -6.4312 O.co2     1 ACP        -0.8970
      3 O2G         3.6632    2.3629   -4.0010 O.co2     1 ACP        -0.8970
      4 O3G         4.1815    3.9451   -5.9515 O.3       1 ACP        -0.7959
      5 PB          0.5265    1.4603   -5.8713 P.3       1 ACP         1.5194
      6 O1B         0.9524    0.3578   -6.8126 O.co2     1 ACP        -0.8958
      7 O2B        -0.8182    2.1407   -5.9856 O.co2     1 ACP        -0.8958
      8 C3B         1.8177    2.7799   -5.9464 C.3       1 ACP        -0.5612
      9 PA          0.1597   -0.2651   -3.4849 P.3       1 ACP         1.6019
     10 O1A         0.7024   -1.5470   -4.0782 O.co2     1 ACP        -0.9040
     11 O2A        -1.3314   -0.0589   -3.3282 O.co2     1 ACP        -0.9040
     12 O3A         0.7702    0.9929   -4.3285 O.3       1 ACP        -0.8156
     13 O5'         0.8970   -0.0132   -2.0468 O.3       1 ACP        -0.5465
     14 C5'         2.2816   -0.2918   -1.9206 C.3       1 ACP         0.2108
     15 C4'         2.7248    0.0226   -0.4980 C.3       1 ACP         0.0552
     16 O4'         2.4697    1.4219   -0.2462 O.3       1 ACP        -0.3428
     17 C3'         1.9404   -0.7419    0.5596 C.3       1 ACP         0.0750
     18 O3'         2.7418   -0.8086    1.7389 O.3       1 ACP        -0.6066
     19 C2'         0.7477    0.1630    0.7858 C.3       1 ACP         0.1185
     20 O2'         0.1373   -0.0577    2.0407 O.3       1 ACP        -0.5858
     21 C1'         1.3733    1.5427    0.6747 C.3       1 ACP         0.3826
     22 N9          0.4520    2.5240    0.1767 N.pl3     1 ACP        -0.5729
     23 C8          0.5305    3.2394   -0.9358 C.ar      1 ACP         0.3288
     24 N7         -0.4966    4.0680   -1.1145 N.pl3     1 ACP        -0.5338
     25 C5         -1.2879    3.8664   -0.0375 C.ar      1 ACP        -0.2581
     26 C6         -2.4754    4.4084    0.3577 C.ar      1 ACP         0.7413
     27 N6         -3.0892    5.3882   -0.4495 N.pl3     1 ACP        -0.9512
     28 N1         -3.0632    4.0158    1.5092 N.ar      1 ACP        -0.7699
     29 C2         -2.4008    3.0654    2.2262 C.ar      1 ACP         0.6898
     30 N3         -1.2259    2.4663    1.9260 N.ar      1 ACP        -0.6800
     31 C4         -0.7062    2.9047    0.7757 C.ar      1 ACP         0.6129
     32 HOG3        5.1539    4.0742   -5.9485 H         1 ACP         0.4199
     33 H3B1        1.8189    3.1556   -6.9756 H         1 ACP         0.0672
     34 H3B2        1.4618    3.5914   -5.3020 H         1 ACP         0.0672
     35 H5'1        2.4525   -1.3484   -2.1500 H         1 ACP         0.0277
     36 H5'2        2.8335    0.3232   -2.6384 H         1 ACP         0.0277
     37 H4'         3.8050   -0.1388   -0.4008 H         1 ACP         0.1249
     38 H3'         1.6784   -1.7629    0.2714 H         1 ACP         0.0564
     39 HO3'        2.2232   -1.2979    2.3953 H         1 ACP         0.4511
     40 H2'        -0.0011    0.0027    0.0003 H         1 ACP         0.0716
     41 HO2'       -0.1563   -0.9855    2.0596 H         1 ACP         0.4454
     42 H1'         1.7826    1.9024    1.6451 H         1 ACP         0.1310
     43 H8          1.3437    3.1645   -1.6367 H         1 ACP         0.3565
     44 HN61       -2.6210    5.7042   -1.2748 H         1 ACP         0.4414
     45 HN62       -3.9356    5.8187   -0.1356 H         1 ACP         0.4414
     46 H2         -2.8752    2.7532    3.1495 H         1 ACP         0.0676
     47 H47        -0.6372    4.7004   -1.8900 H         1 ACP         0.5052
@<TRIPOS>BOND
     1    1    2 2
     2    1    3 1
     3    1    4 1
     4    1    8 1
     5    4   32 1
     6    5    6 2
     7    5    7 1
     8    5    8 1
     9    5   12 1
    10    8   33 1
    11    8   34 1
    12    9   10 2
    13    9   11 1
    14    9   12 1
    15    9   13 1
    16   13   14 1
    17   14   15 1
    18   14   35 1
    19   14   36 1
    20   15   16 1
    21   15   17 1
    22   15   37 1
    23   16   21 1
    24   17   18 1
    25   17   19 1
    26   17   38 1
    27   18   39 1
    28   19   20 1
    29   19   21 1
    30   19   40 1
    31   20   41 1
    32   21   22 1
    33   21   42 1
    34   22   23 ar
    35   22   31 ar
    36   23   24 ar
    37   23   43 1
    38   24   25 ar
    39   24   47 1
    40   25   26 ar
    41   25   31 ar
    42   26   27 1
    43   26   28 ar
    44   27   44 1
    45   27   45 1
    46   28   29 ar
    47   29   30 ar
    48   29   46 1
    49   30   31 ar
@<TRIPOS>SUBSTRUCTURE
     1 ACP         1 GROUP 0 A     ****
@<TRIPOS>MOLECULE
[[5-(6-amino-7,8-dihydropurin-8-ylium-9-yl)-3,4-dihydroxy-tetrahydrofuran-2-yl]methoxy-oxido-phosphoryl]oxy-[[hydroxy(oxido)phosphoryl]methyl]phosphinate
   47    49     1     0     0
SMALL
USER_CHARGES

@<TRIPOS>ATOM
      1 PG         -0.1550   -2.7412   -5.5555 P.3       1 ACP         1.3755
      2 O1G        -1.5053   -2.5771   -6.2133 O.co2     1 ACP        -0.8970
      3 O2G         0.1001   -2.3166   -4.1277 O.co2     1 ACP        -0.8970
      4 O3G         0.3673   -4.2719   -5.7652 O.3       1 ACP        -0.7959
      5 PB          2.8931   -1.8182   -6.2129 P.3       1 ACP         1.5194
      6 O1B         3.5735   -1.0368   -7.3125 O.co2     1 ACP        -0.8958
      7 O2B         3.3217   -3.2181   -5.8373 O.co2     1 ACP        -0.8958
      8 C3B         1.0913   -1.8853   -6.6168 C.3       1 ACP        -0.5612
      9 PA          3.9534   -0.2075   -3.9573 P.3       1 ACP         1.6019
     10 O1A         4.6225    0.8729   -4.7788 O.co2     1 ACP        -0.9040
     11 O2A         4.7732   -1.3027   -3.3100 O.co2     1 ACP        -0.9040
     12 O3A         2.7896   -0.9020   -4.8683 O.3       1 ACP        -0.8156
     13 O5'         3.0198    0.5138   -2.8245 O.3       1 ACP        -0.5465
     14 C5'         2.2816   -0.2918   -1.9206 C.3       1 ACP         0.2108
     15 C4'         2.7248    0.0226   -0.4980 C.3       1 ACP         0.0552
     16 O4'         2.4697    1.4219   -0.2462 O.3       1 ACP        -0.3428
     17 C3'         1.9404   -0.7419    0.5596 C.3       1 ACP         0.0750
     18 O3'         2.7418   -0.8086    1.7389 O.3       1 ACP        -0.6066
     19 C2'         0.7477    0.1630    0.7858 C.3       1 ACP         0.1185
     20 O2'         0.1373   -0.0577    2.0407 O.3       1 ACP        -0.5858
     21 C1'         1.3733    1.5427    0.6747 C.3       1 ACP         0.3826
     22 N9          0.4520    2.5240    0.1767 N.pl3     1 ACP        -0.5729
     23 C8         -0.8602    2.5861    0.3496 C.ar      1 ACP         0.3288
     24 N7         -1.4308    3.6326   -0.2443 N.pl3     1 ACP        -0.5338
     25 C5         -0.4080    4.2856   -0.8394 C.ar      1 ACP        -0.2581
     26 C6         -0.3432    5.4196   -1.5943 C.ar      1 ACP         0.7413
     27 N6         -1.5276    6.1333   -1.8702 N.pl3     1 ACP        -0.9512
     28 N1          0.8395    5.8603   -2.0764 N.ar      1 ACP        -0.7699
     29 C2          1.9319    5.1095   -1.7617 C.ar      1 ACP         0.6898
     30 N3          1.9773    3.9761   -1.0249 N.ar      1 ACP        -0.6800
     31 C4          0.7724    3.6031   -0.5836 C.ar      1 ACP         0.6129
     32 HOG3       -0.1772   -5.0052   -5.4074 H         1 ACP         0.4199
     33 H3B1        0.7533   -0.8467   -6.7039 H         1 ACP         0.0672
     34 H3B2        1.0187   -2.3378   -7.6120 H         1 ACP         0.0672
     35 H5'1        1.2153   -0.0781   -2.0454 H         1 ACP         0.0277
     36 H5'2        2.4645   -1.3454   -2.1547 H         1 ACP         0.0277
     37 H4'         3.8050   -0.1388   -0.4008 H         1 ACP         0.1249
     38 H3'         1.6784   -1.7629    0.2714 H         1 ACP         0.0564
     39 HO3'        2.2232   -1.2979    2.3953 H         1 ACP         0.4511
     40 H2'        -0.0011    0.0027    0.0003 H         1 ACP         0.0716
     41 HO2'       -0.1563   -0.9855    2.0596 H         1 ACP         0.4454
     42 H1'         1.7826    1.9024    1.6451 H         1 ACP         0.1310
     43 H8         -1.4217    1.8638    0.9164 H         1 ACP         0.3565
     44 HN61       -2.4023    5.7711   -1.5477 H         1 ACP         0.4414
     45 HN62       -1.4857    6.9379   -2.4627 H         1 ACP         0.4414
     46 H2          2.8789    5.4660   -2.1503 H         1 ACP         0.0676
     47 H47        -2.4129    3.8706   -0.2402 H         1 ACP         0.5052
@<TRIPOS>BOND
     1    1    2 2
     2    1    3 1
     3    1    4 1
     4    1    8 1
     5    4   32 1
     6    5    6 2
     7    5    7 1
     8    5    8 1
     9    5   12 1
    10    8   33 1
    11    8   34 1
    12    9   10 2
    13    9   11 1
    14    9   12 1
    15    9   13 1
    16   13   14 1
    17   14   15 1
    18   14   35 1
    19   14   36 1
    20   15   16 1
    21   15   17 1
    22   15   37 1
    23   16   21 1
    24   17   18 1
    25   17   19 1
    26   17   38 1
    27   18   39 1
    28   19   20 1
    29   19   21 1
    30   19   40 1
    31   20   41 1
    32   21   22 1
    33   21   42 1
    34   22   23 ar
    35   22   31 ar
    36   23   24 ar
    37   23   43 1
    38   24   25 ar
    39   24   47 1
    40   25   26 ar
    41   25   31 ar
    42   26   27 1
    43   26   28 ar
    44   27   44 1
    45   27   45 1
    46   28   29 ar
    47   29   30 ar
    48   29   46 1
    49   30   31 ar
@<TRIPOS>SUBSTRUCTURE
     1 ACP         1 GROUP 0 A     ****
@<TRIPOS>MOLECULE
[[5-(6-amino-7,8-dihydropurin-8-ylium-9-yl)-3,4-dihydroxy-tetrahydrofuran-2-yl]methoxy-oxido-phosphoryl]oxy-[[hydroxy(oxido)phosphoryl]methyl]phosphinate
   47    49     1     0     0
SMALL
USER_CHARGES

@<TRIPOS>ATOM
      1 PG         -2.7805   -1.0031   -3.3844 P.3       1 ACP         1.3755
      2 O1G        -4.1041   -1.1040   -4.1060 O.co2     1 ACP        -0.8970
      3 O2G        -1.6749   -0.0880   -3.8580 O.co2     1 ACP        -0.8970
      4 O3G        -3.0476   -0.7500   -1.7955 O.3       1 ACP        -0.7959
      5 PB         -0.4560   -3.0822   -2.4629 P.3       1 ACP         1.5194
      6 O1B        -0.2322   -4.5724   -2.5718 O.co2     1 ACP        -0.8958
      7 O2B        -0.4376   -2.3610   -1.1347 O.co2     1 ACP        -0.8958
      8 C3B        -2.0755   -2.7066   -3.2693 C.3       1 ACP        -0.5612
      9 PA          2.1362   -2.2698   -3.6575 P.3       1 ACP         1.6019
     10 O1A         2.5073   -1.2450   -4.7072 O.co2     1 ACP        -0.9040
     11 O2A         2.6360   -3.6946   -3.7605 O.co2     1 ACP        -0.9040
     12 O3A         0.5093   -2.3009   -3.5192 O.3       1 ACP        -0.8156
     13 O5'         2.5237   -1.6631   -2.1889 O.3       1 ACP        -0.5465
     14 C5'         2.2816   -0.2918   -1.9206 C.3       1 ACP         0.2108
     15 C4'         2.7248    0.0226   -0.4980 C.3       1 ACP         0.0552
     16 O4'         2.4697    1.4219   -0.2462 O.3       1 ACP        -0.3428
     17 C3'         1.9404   -0.7419    0.5596 C.3       1 ACP         0.0750
     18 O3'         2.7418   -0.8086    1.7389 O.3       1 ACP        -0.6066
     19 C2'         0.7477    0.1630    0.7858 C.3       1 ACP         0.1185
     20 O2'         0.1373   -0.0577    2.0407 O.3       1 ACP        -0.5858
     21 C1'         1.3733    1.5427    0.6747 C.3       1 ACP         0.3826
     22 N9          0.4520    2.5240    0.1767 N.pl3     1 ACP        -0.5729
     23 C8         -0.8252    2.3702   -0.1405 C.ar      1 ACP         0.3288
     24 N7         -1.4086    3.4861   -0.5739 N.pl3     1 ACP        -0.5338
     25 C5         -0.4324    4.4197   -0.5299 C.ar      1 ACP        -0.2581
     26 C6         -0.4006    5.7465   -0.8439 C.ar      1 ACP         0.7413
     27 N6         -1.5714    6.3708   -1.3211 N.pl3     1 ACP        -0.9512
     28 N1          0.7370    6.4615   -0.7020 N.ar      1 ACP        -0.7699
     29 C2          1.8196    5.7785   -0.2355 C.ar      1 ACP         0.6898
     30 N3          1.8948    4.4713    0.1036 N.ar      1 ACP        -0.6800
     31 C4          0.7337    3.8311   -0.0629 C.ar      1 ACP         0.6129
     32 HOG3       -3.5423    0.0532   -1.5265 H         1 ACP         0.4199
     33 H3B1       -2.0031   -3.0750   -4.2986 H         1 ACP         0.0672
     34 H3B2       -2.8223   -3.3204   -2.7536 H         1 ACP         0.0672
     35 H5'1        2.8429    0.3140   -2.6391 H         1 ACP         0.0277
     36 H5'2        1.2125   -0.0906   -2.0420 H         1 ACP         0.0277
     37 H4'         3.8050   -0.1388   -0.4008 H         1 ACP         0.1249
     38 H3'         1.6784   -1.7629    0.2714 H         1 ACP         0.0564
     39 HO3'        2.2232   -1.2979    2.3953 H         1 ACP         0.4511
     40 H2'        -0.0011    0.0027    0.0003 H         1 ACP         0.0716
     41 HO2'       -0.1563   -0.9855    2.0596 H         1 ACP         0.4454
     42 H1'         1.7826    1.9024    1.6451 H         1 ACP         0.1310
     43 H8         -1.3516    1.4351   -0.0582 H         1 ACP         0.3565
     44 HN61       -2.3936    5.8204   -1.4664 H         1 ACP         0.4414
     45 HN62       -1.5348    7.3319   -1.5955 H         1 ACP         0.4414
     46 H2          2.7305    6.3553   -0.1232 H         1 ACP         0.0676
     47 H47        -2.3700    3.5931   -0.8665 H         1 ACP         0.5052
@<TRIPOS>BOND
     1    1    2 2
     2    1    3 1
     3    1    4 1
     4    1    8 1
     5    4   32 1
     6    5    6 2
     7    5    7 1
     8    5    8 1
     9    5   12 1
    10    8   33 1
    11    8   34 1
    12    9   10 2
    13    9   11 1
    14    9   12 1
    15    9   13 1
    16   13   14 1
    17   14   15 1
    18   14   35 1
    19   14   36 1
    20   15   16 1
    21   15   17 1
    22   15   37 1
    23   16   21 1
    24   17   18 1
    25   17   19 1
    26   17   38 1
    27   18   39 1
    28   19   20 1
    29   19   21 1
    30   19   40 1
    31   20   41 1
    32   21   22 1
    33   21   42 1
    34   22   23 ar
    35   22   31 ar
    36   23   24 ar
    37   23   43 1
    38   24   25 ar
    39   24   47 1
    40   25   26 ar
    41   25   31 ar
    42   26   27 1
    43   26   28 ar
    44   27   44 1
    45   27   45 1
    46   28   29 ar
    47   29   30 ar
    48   29   46 1
    49   30   31 ar
@<TRIPOS>SUBSTRUCTURE
     1 ACP         1 GROUP 0 A     ****
@<TRIPOS>MOLECULE
[[5-(6-amino-7,8-dihydropurin-8-ylium-9-yl)-3,4-dihydroxy-tetrahydrofuran-2-yl]methoxy-oxido-phosphoryl]oxy-[[hydroxy(oxido)phosphoryl]methyl]phosphinate
   47    49     1     0     0
SMALL
USER_CHARGES

@<TRIPOS>ATOM
      1 PG         -3.3842   -8.1654    0.8859 P.3       1 ACP         1.3755
      2 O1G        -2.6015   -9.3521    0.3739 O.co2     1 ACP        -0.8970
      3 O2G        -3.2123   -6.7796    0.3078 O.co2     1 ACP        -0.8970
      4 O3G        -4.9709   -8.5401    0.9279 O.3       1 ACP        -0.7959
      5 PB         -3.8449   -6.7379    3.7712 P.3       1 ACP         1.5194
      6 O1B        -3.3669   -6.9758    5.1846 O.co2     1 ACP        -0.8958
      7 O2B        -5.3132   -6.6654    3.4202 O.co2     1 ACP        -0.8958
      8 C3B        -3.0894   -8.0446    2.7055 C.3       1 ACP        -0.5612
      9 PA         -3.0181   -3.8920    3.6167 P.3       1 ACP         1.6019
     10 O1A        -2.2860   -3.8232    4.9392 O.co2     1 ACP        -0.9040
     11 O2A        -4.4029   -3.2991    3.4704 O.co2     1 ACP        -0.9040
     12 O3A        -3.0698   -5.4519    3.1361 O.3       1 ACP        -0.8156
     13 O5'        -2.0403   -3.2809    2.4568 O.3       1 ACP        -0.5465
     14 C5'        -0.7840   -3.8935    2.2172 C.3       1 ACP         0.2108
     15 C4'        -0.0724   -3.1466    1.1027 C.3       1 ACP         0.0552
     16 O4'        -0.8674   -3.1929   -0.0945 O.3       1 ACP        -0.3428
     17 C3'         0.1338   -1.6715    1.4027 C.3       1 ACP         0.0750
     18 O3'         1.2893   -1.4445    2.1808 O.3       1 ACP        -0.6066
     19 C2'         0.2158   -1.0724    0.0128 C.3       1 ACP         0.1185
     20 O2'         1.5141   -1.2448   -0.5513 O.3       1 ACP        -0.5858
     21 C1'        -0.7897   -1.9176   -0.7583 C.3       1 ACP         0.3826
     22 N9         -2.1040   -1.3333   -0.7704 N.pl3     1 ACP        -0.5729
     23 C8         -3.2304   -1.8262   -0.2767 C.ar      1 ACP         0.3288
     24 N7         -4.2847   -1.0309   -0.4481 N.pl3     1 ACP        -0.5338
     25 C5         -3.7951    0.0479   -1.0985 C.ar      1 ACP        -0.2581
     26 C6         -4.3691    1.1983   -1.5536 C.ar      1 ACP         0.7413
     27 N6         -5.7501    1.4047   -1.3573 N.pl3     1 ACP        -0.9512
     28 N1         -3.6289    2.1345   -2.1869 N.ar      1 ACP        -0.7699
     29 C2         -2.3041    1.8525   -2.3333 C.ar      1 ACP         0.6898
     30 N3         -1.6387    0.7492   -1.9218 N.ar      1 ACP        -0.6800
     31 C4         -2.4348   -0.1293   -1.3053 C.ar      1 ACP         0.6129
     32 HOG3       -5.4146   -8.7910    0.0898 H         1 ACP         0.4199
     33 H3B1       -2.0044   -7.9601    2.8319 H         1 ACP         0.0672
     34 H3B2       -3.3956   -9.0042    3.1367 H         1 ACP         0.0672
     35 H5'1       -0.1929   -3.8610    3.1379 H         1 ACP         0.0277
     36 H5'2       -0.9476   -4.9382    1.9344 H         1 ACP         0.0277
     37 H4'         0.8886   -3.6447    0.8779 H         1 ACP         0.1249
     38 H3'        -0.7373   -1.2359    1.9870 H         1 ACP         0.0564
     39 HO3'        1.3408   -0.4870    2.3219 H         1 ACP         0.4511
     40 H2'        -0.0384   -0.0310    0.0096 H         1 ACP         0.0716
     41 HO2'        2.1463   -0.7958    0.0370 H         1 ACP         0.4454
     42 H1'        -0.4769   -2.1002   -1.8093 H         1 ACP         0.1310
     43 H8         -3.2974   -2.7789    0.2194 H         1 ACP         0.3565
     44 HN61       -6.2956    0.6838   -0.9296 H         1 ACP         0.4414
     45 HN62       -6.1788    2.2266   -1.7327 H         1 ACP         0.4414
     46 H2         -1.7135    2.6057   -2.8421 H         1 ACP         0.0676
     47 H47        -5.2337   -1.2102   -0.1507 H         1 ACP         0.5052
@<TRIPOS>BOND
     1    1    2 2
     2    1    3 1
     3    1    4 1
     4    1    8 1
     5    4   32 1
     6    5    6 2
     7    5    7 1
     8    5    8 1
     9    5   12 1
    10    8   33 1
    11    8   34 1
    12    9   10 2
    13    9   11 1
    14    9   12 1
    15    9   13 1
    16   13   14 1
    17   14   15 1
    18   14   35 1
    19   14   36 1
    20   15   16 1
    21   15   17 1
    22   15   37 1
    23   16   21 1
    24   17   18 1
    25   17   19 1
    26   17   38 1
    27   18   39 1
    28   19   20 1
    29   19   21 1
    30   19   40 1
    31   20   41 1
    32   21   22 1
    33   21   42 1
    34   22   23 ar
    35   22   31 ar
    36   23   24 ar
    37   23   43 1
    38   24   25 ar
    39   24   47 1
    40   25   26 ar
    41   25   31 ar
    42   26   27 1
    43   26   28 ar
    44   27   44 1
    45   27   45 1
    46   28   29 ar
    47   29   30 ar
    48   29   46 1
    49   30   31 ar
@<TRIPOS>SUBSTRUCTURE
     1 ACP         1 GROUP 0 A     ****
@<TRIPOS>MOLECULE
[[5-(6-amino-7,8-dihydropurin-8-ylium-9-yl)-3,4-dihydroxy-tetrahydrofuran-2-yl]methoxy-oxido-phosphoryl]oxy-[[hydroxy(oxido)phosphoryl]methyl]phosphinate
   47    49     1     0     0
SMALL
USER_CHARGES

@<TRIPOS>ATOM
      1 PG         -2.0037   -6.5386    6.7275 P.3       1 ACP         1.3755
      2 O1G        -1.9101   -8.0459    6.7732 O.co2     1 ACP        -0.8970
      3 O2G        -2.6652   -5.8090    5.5811 O.co2     1 ACP        -0.8970
      4 O3G        -2.6105   -5.9904    8.1385 O.3       1 ACP        -0.7959
      5 PB          1.0689   -6.2488    5.7024 P.3       1 ACP         1.5194
      6 O1B         1.2724   -7.7458    5.7139 O.co2     1 ACP        -0.8958
      7 O2B         2.1961   -5.2817    5.9824 O.co2     1 ACP        -0.8958
      8 C3B        -0.2909   -5.8671    6.8938 C.3       1 ACP        -0.5612
      9 PA          0.7253   -5.9839    2.7667 P.3       1 ACP         1.6019
     10 O1A         0.7135   -7.4595    2.4317 O.co2     1 ACP        -0.9040
     11 O2A         1.9570   -5.1440    2.5058 O.co2     1 ACP        -0.9040
     12 O3A         0.3009   -5.8072    4.3337 O.3       1 ACP        -0.8156
     13 O5'        -0.5697   -5.2855    2.0524 O.3       1 ACP        -0.5465
     14 C5'        -0.7840   -3.8935    2.2172 C.3       1 ACP         0.2108
     15 C4'        -0.0724   -3.1466    1.1027 C.3       1 ACP         0.0552
     16 O4'        -0.8674   -3.1929   -0.0945 O.3       1 ACP        -0.3428
     17 C3'         0.1338   -1.6715    1.4027 C.3       1 ACP         0.0750
     18 O3'         1.2893   -1.4445    2.1808 O.3       1 ACP        -0.6066
     19 C2'         0.2158   -1.0724    0.0128 C.3       1 ACP         0.1185
     20 O2'         1.5141   -1.2448   -0.5513 O.3       1 ACP        -0.5858
     21 C1'        -0.7897   -1.9176   -0.7583 C.3       1 ACP         0.3826
     22 N9         -2.1040   -1.3333   -0.7704 N.pl3     1 ACP        -0.5729
     23 C8         -3.0822   -1.4850    0.1102 C.ar      1 ACP         0.3288
     24 N7         -4.1844   -0.7999   -0.1888 N.pl3     1 ACP        -0.5338
     25 C5         -3.8875   -0.1651   -1.3445 C.ar      1 ACP        -0.2581
     26 C6         -4.5941    0.6799   -2.1486 C.ar      1 ACP         0.7413
     27 N6         -5.9138    1.0274   -1.7939 N.pl3     1 ACP        -0.9512
     28 N1         -4.0421    1.1824   -3.2748 N.ar      1 ACP        -0.7699
     29 C2         -2.7637    0.7937   -3.5405 C.ar      1 ACP         0.6898
     30 N3         -1.9788   -0.0343   -2.8139 N.ar      1 ACP        -0.6800
     31 C4         -2.5915   -0.4902   -1.7174 C.ar      1 ACP         0.6129
     32 HOG3       -3.5041   -6.2894    8.4111 H         1 ACP         0.4199
     33 H3B1        0.0637   -6.1821    7.8816 H         1 ACP         0.0672
     34 H3B2       -0.3828   -4.7755    6.9117 H         1 ACP         0.0672
     35 H5'1       -1.8599   -3.6946    2.1849 H         1 ACP         0.0277
     36 H5'2       -0.3934   -3.5881    3.1930 H         1 ACP         0.0277
     37 H4'         0.8886   -3.6447    0.8779 H         1 ACP         0.1249
     38 H3'        -0.7373   -1.2359    1.9870 H         1 ACP         0.0564
     39 HO3'        1.3408   -0.4870    2.3219 H         1 ACP         0.4511
     40 H2'        -0.0384   -0.0310    0.0096 H         1 ACP         0.0716
     41 HO2'        2.1463   -0.7958    0.0370 H         1 ACP         0.4454
     42 H1'        -0.4769   -2.1002   -1.8093 H         1 ACP         0.1310
     43 H8         -3.0031   -2.1011    0.9891 H         1 ACP         0.3565
     44 HN61       -6.3271    0.6117   -0.9836 H         1 ACP         0.4414
     45 HN62       -6.4471    1.6092   -2.4083 H         1 ACP         0.4414
     46 H2         -2.3243    1.1986   -4.4449 H         1 ACP         0.0676
     47 H47        -5.0436   -0.7722    0.3425 H         1 ACP         0.5052
@<TRIPOS>BOND
     1    1    2 2
     2    1    3 1
     3    1    4 1
     4    1    8 1
     5    4   32 1
     6    5    6 2
     7    5    7 1
     8    5    8 1
     9    5   12 1
    10    8   33 1
    11    8   34 1
    12    9   10 2
    13    9   11 1
    14    9   12 1
    15    9   13 1
    16   13   14 1
    17   14   15 1
    18   14   35 1
    19   14   36 1
    20   15   16 1
    21   15   17 1
    22   15   37 1
    23   16   21 1
    24   17   18 1
    25   17   19 1
    26   17   38 1
    27   18   39 1
    28   19   20 1
    29   19   21 1
    30   19   40 1
    31   20   41 1
    32   21   22 1
    33   21   42 1
    34   22   23 ar
    35   22   31 ar
    36   23   24 ar
    37   23   43 1
    38   24   25 ar
    39   24   47 1
    40   25   26 ar
    41   25   31 ar
    42   26   27 1
    43   26   28 ar
    44   27   44 1
    45   27   45 1
    46   28   29 ar
    47   29   30 ar
    48   29   46 1
    49   30   31 ar
@<TRIPOS>SUBSTRUCTURE
     1 ACP         1 GROUP 0 A     ****
@<TRIPOS>MOLECULE
[[5-(6-amino-7,8-dihydropurin-8-ylium-9-yl)-3,4-dihydroxy-tetrahydrofuran-2-yl]methoxy-oxido-phosphoryl]oxy-[[hydroxy(oxido)phosphoryl]methyl]phosphinate
   47    49     1     0     0
SMALL
USER_CHARGES

@<TRIPOS>ATOM
      1 PG         -0.2215   -6.0881    6.2349 P.3       1 ACP         1.3755
      2 O1G         0.1180   -7.0083    7.3842 O.co2     1 ACP        -0.8970
      3 O2G         0.8262   -5.2474    5.5422 O.co2     1 ACP        -0.8970
      4 O3G        -1.0795   -6.9101    5.1178 O.3       1 ACP        -0.7959
      5 PB         -2.2973   -3.6343    5.7395 P.3       1 ACP         1.5194
      6 O1B        -1.1824   -2.7007    5.3298 O.co2     1 ACP        -0.8958
      7 O2B        -3.5450   -3.1408    6.4352 O.co2     1 ACP        -0.8958
      8 C3B        -1.5547   -4.9455    6.8088 C.3       1 ACP        -0.5612
      9 PA         -3.2840   -4.1951    2.9975 P.3       1 ACP         1.6019
     10 O1A        -4.4923   -3.3000    3.1669 O.co2     1 ACP        -0.9040
     11 O2A        -3.3723   -5.4616    2.1737 O.co2     1 ACP        -0.9040
     12 O3A        -2.7155   -4.5802    4.4792 O.3       1 ACP        -0.8156
     13 O5'        -2.0403   -3.2809    2.4568 O.3       1 ACP        -0.5465
     14 C5'        -0.7840   -3.8935    2.2172 C.3       1 ACP         0.2108
     15 C4'        -0.0724   -3.1466    1.1027 C.3       1 ACP         0.0552
     16 O4'        -0.8674   -3.1929   -0.0945 O.3       1 ACP        -0.3428
     17 C3'         0.1338   -1.6715    1.4027 C.3       1 ACP         0.0750
     18 O3'         1.2893   -1.4445    2.1808 O.3       1 ACP        -0.6066
     19 C2'         0.2158   -1.0724    0.0128 C.3       1 ACP         0.1185
     20 O2'         1.5141   -1.2448   -0.5513 O.3       1 ACP        -0.5858
     21 C1'        -0.7897   -1.9176   -0.7583 C.3       1 ACP         0.3826
     22 N9         -2.1040   -1.3333   -0.7704 N.pl3     1 ACP        -0.5729
     23 C8         -3.2304   -1.8262   -0.2767 C.ar      1 ACP         0.3288
     24 N7         -4.2847   -1.0309   -0.4481 N.pl3     1 ACP        -0.5338
     25 C5         -3.7951    0.0479   -1.0985 C.ar      1 ACP        -0.2581
     26 C6         -4.3691    1.1983   -1.5536 C.ar      1 ACP         0.7413
     27 N6         -5.7501    1.4047   -1.3573 N.pl3     1 ACP        -0.9512
     28 N1         -3.6289    2.1345   -2.1869 N.ar      1 ACP        -0.7699
     29 C2         -2.3041    1.8525   -2.3333 C.ar      1 ACP         0.6898
     30 N3         -1.6387    0.7492   -1.9218 N.ar      1 ACP        -0.6800
     31 C4         -2.4348   -0.1293   -1.3053 C.ar      1 ACP         0.6129
     32 HOG3       -0.6690   -7.6958    4.6977 H         1 ACP         0.4199
     33 H3B1       -1.1576   -4.4367    7.6942 H         1 ACP         0.0672
     34 H3B2       -2.3870   -5.5766    7.1396 H         1 ACP         0.0672
     35 H5'1       -0.1929   -3.8610    3.1379 H         1 ACP         0.0277
     36 H5'2       -0.9476   -4.9382    1.9344 H         1 ACP         0.0277
     37 H4'         0.8886   -3.6447    0.8779 H         1 ACP         0.1249
     38 H3'        -0.7373   -1.2359    1.9870 H         1 ACP         0.0564
     39 HO3'        1.3408   -0.4870    2.3219 H         1 ACP         0.4511
     40 H2'        -0.0384   -0.0310    0.0096 H         1 ACP         0.0716
     41 HO2'        2.1463   -0.7958    0.0370 H         1 ACP         0.4454
     42 H1'        -0.4769   -2.1002   -1.8093 H         1 ACP         0.1310
     43 H8         -3.2974   -2.7789    0.2194 H         1 ACP         0.3565
     44 HN61       -6.1609    2.2686   -1.6490 H         1 ACP         0.4414
     45 HN62       -6.2772    0.7257   -0.8460 H         1 ACP         0.4414
     46 H2         -1.7135    2.6057   -2.8421 H         1 ACP         0.0676
     47 H47        -5.2337   -1.2102   -0.1507 H         1 ACP         0.5052
@<TRIPOS>BOND
     1    1    2 2
     2    1    3 1
     3    1    4 1
     4    1    8 1
     5    4   32 1
     6    5    6 2
     7    5    7 1
     8    5    8 1
     9    5   12 1
    10    8   33 1
    11    8   34 1
    12    9   10 2
    13    9   11 1
    14    9   12 1
    15    9   13 1
    16   13   14 1
    17   14   15 1
    18   14   35 1
    19   14   36 1
    20   15   16 1
    21   15   17 1
    22   15   37 1
    23   16   21 1
    24   17   18 1
    25   17   19 1
    26   17   38 1
    27   18   39 1
    28   19   20 1
    29   19   21 1
    30   19   40 1
    31   20   41 1
    32   21   22 1
    33   21   42 1
    34   22   23 ar
    35   22   31 ar
    36   23   24 ar
    37   23   43 1
    38   24   25 ar
    39   24   47 1
    40   25   26 ar
    41   25   31 ar
    42   26   27 1
    43   26   28 ar
    44   27   44 1
    45   27   45 1
    46   28   29 ar
    47   29   30 ar
    48   29   46 1
    49   30   31 ar
@<TRIPOS>SUBSTRUCTURE
     1 ACP         1 GROUP 0 A     ****
@<TRIPOS>MOLECULE
[[5-(6-amino-7,8-dihydropurin-8-ylium-9-yl)-3,4-dihydroxy-tetrahydrofuran-2-yl]methoxy-oxido-phosphoryl]oxy-[[hydroxy(oxido)phosphoryl]methyl]phosphinate
   47    49     1     0     0
SMALL
USER_CHARGES

@<TRIPOS>ATOM
      1 PG          0.0329   -2.4541   -6.0499 P.3       1 ACP         1.3755
      2 O1G        -0.9296   -3.5972   -5.8270 O.co2     1 ACP        -0.8970
      3 O2G         1.4223   -2.4461   -5.4552 O.co2     1 ACP        -0.8970
      4 O3G         0.1263   -2.1276   -7.6450 O.3       1 ACP        -0.7959
      5 PB         -0.0151    0.7652   -5.5925 P.3       1 ACP         1.5194
      6 O1B        -1.0136    1.7679   -5.0633 O.co2     1 ACP        -0.8958
      7 O2B         0.6077    0.8969   -6.9634 O.co2     1 ACP        -0.8958
      8 C3B        -0.8083   -0.9015   -5.5076 C.3       1 ACP        -0.5612
      9 PA          2.2208    1.5499   -3.8060 P.3       1 ACP         1.6019
     10 O1A         1.4540    2.5266   -2.9413 O.co2     1 ACP        -0.9040
     11 O2A         3.1601    2.0469   -4.8836 O.co2     1 ACP        -0.9040
     12 O3A         1.1553    0.5154   -4.4853 O.3       1 ACP        -0.8156
     13 O5'         3.0198    0.5138   -2.8245 O.3       1 ACP        -0.5465
     14 C5'         2.2816   -0.2918   -1.9206 C.3       1 ACP         0.2108
     15 C4'         2.7248    0.0226   -0.4980 C.3       1 ACP         0.0552
     16 O4'         2.4697    1.4219   -0.2462 O.3       1 ACP        -0.3428
     17 C3'         1.9404   -0.7419    0.5596 C.3       1 ACP         0.0750
     18 O3'         2.7418   -0.8086    1.7389 O.3       1 ACP        -0.6066
     19 C2'         0.7477    0.1630    0.7858 C.3       1 ACP         0.1185
     20 O2'         0.1373   -0.0577    2.0407 O.3       1 ACP        -0.5858
     21 C1'         1.3733    1.5427    0.6747 C.3       1 ACP         0.3826
     22 N9          0.4520    2.5240    0.1767 N.pl3     1 ACP        -0.5729
     23 C8         -0.5899    2.3466   -0.6224 C.ar      1 ACP         0.3288
     24 N7         -1.2514    3.4689   -0.8989 N.pl3     1 ACP        -0.5338
     25 C5         -0.5826    4.4323   -0.2272 C.ar      1 ACP        -0.2581
     26 C6         -0.7636    5.7789   -0.1086 C.ar      1 ACP         0.7413
     27 N6         -1.8382    6.3927   -0.7843 N.pl3     1 ACP        -0.9512
     28 N1          0.0741    6.5233    0.6461 N.ar      1 ACP        -0.7699
     29 C2          1.0845    5.8486    1.2626 C.ar      1 ACP         0.6898
     30 N3          1.3516    4.5236    1.2116 N.ar      1 ACP        -0.6800
     31 C4          0.4827    3.8546    0.4481 C.ar      1 ACP         0.6129
     32 HOG3        0.4331   -2.8359   -8.2503 H         1 ACP         0.4199
     33 H3B1       -1.0897   -1.0589   -4.4605 H         1 ACP         0.0672
     34 H3B2       -1.7346   -0.8280   -6.0881 H         1 ACP         0.0672
     35 H5'1        1.2153   -0.0781   -2.0454 H         1 ACP         0.0277
     36 H5'2        2.4645   -1.3454   -2.1547 H         1 ACP         0.0277
     37 H4'         3.8050   -0.1388   -0.4008 H         1 ACP         0.1249
     38 H3'         1.6784   -1.7629    0.2714 H         1 ACP         0.0564
     39 HO3'        2.2232   -1.2979    2.3953 H         1 ACP         0.4511
     40 H2'        -0.0011    0.0027    0.0003 H         1 ACP         0.0716
     41 HO2'       -0.6141    0.5574    2.1082 H         1 ACP         0.4454
     42 H1'         1.7826    1.9024    1.6451 H         1 ACP         0.1310
     43 H8         -0.8833    1.3888   -1.0158 H         1 ACP         0.3565
     44 HN61       -2.4225    5.8385   -1.3773 H         1 ACP         0.4414
     45 HN62       -1.9421    7.3862   -0.7348 H         1 ACP         0.4414
     46 H2          1.7546    6.4491    1.8670 H         1 ACP         0.0676
     47 H47        -2.0705    3.5612   -1.4834 H         1 ACP         0.5052
@<TRIPOS>BOND
     1    1    2 2
     2    1    3 1
     3    1    4 1
     4    1    8 1
     5    4   32 1
     6    5    6 2
     7    5    7 1
     8    5    8 1
     9    5   12 1
    10    8   33 1
    11    8   34 1
    12    9   10 2
    13    9   11 1
    14    9   12 1
    15    9   13 1
    16   13   14 1
    17   14   15 1
    18   14   35 1
    19   14   36 1
    20   15   16 1
    21   15   17 1
    22   15   37 1
    23   16   21 1
    24   17   18 1
    25   17   19 1
    26   17   38 1
    27   18   39 1
    28   19   20 1
    29   19   21 1
    30   19   40 1
    31   20   41 1
    32   21   22 1
    33   21   42 1
    34   22   23 ar
    35   22   31 ar
    36   23   24 ar
    37   23   43 1
    38   24   25 ar
    39   24   47 1
    40   25   26 ar
    41   25   31 ar
    42   26   27 1
    43   26   28 ar
    44   27   44 1
    45   27   45 1
    46   28   29 ar
    47   29   30 ar
    48   29   46 1
    49   30   31 ar
@<TRIPOS>SUBSTRUCTURE
     1 ACP         1 GROUP 0 A     ****
@<TRIPOS>MOLECULE
[[5-(6-amino-7,8-dihydropurin-8-ylium-9-yl)-3,4-dihydroxy-tetrahydrofuran-2-yl]methoxy-oxido-phosphoryl]oxy-[[hydroxy(oxido)phosphoryl]methyl]phosphinate
   47    49     1     0     0
SMALL
USER_CHARGES

@<TRIPOS>ATOM
      1 PG         -2.2544   -8.8248    3.5564 P.3       1 ACP         1.3755
      2 O1G        -2.4091  -10.3167    3.7385 O.co2     1 ACP        -0.8970
      3 O2G        -1.5813   -8.2291    2.3414 O.co2     1 ACP        -0.8970
      4 O3G        -3.6967   -8.0986    3.7852 O.3       1 ACP        -0.7959
      5 PB         -0.9712   -6.3807    5.2754 P.3       1 ACP         1.5194
      6 O1B        -0.2693   -6.2460    6.6065 O.co2     1 ACP        -0.8958
      7 O2B        -2.2112   -5.5861    4.9359 O.co2     1 ACP        -0.8958
      8 C3B        -1.3842   -8.1672    5.0472 C.3       1 ACP        -0.5612
      9 PA          1.1132   -5.0167    3.6625 P.3       1 ACP         1.6019
     10 O1A         1.7792   -5.3555    2.3467 O.co2     1 ACP        -0.9040
     11 O2A         1.9427   -4.6574    4.8763 O.co2     1 ACP        -0.9040
     12 O3A         0.1118   -6.2424    4.0646 O.3       1 ACP        -0.8156
     13 O5'         0.0099   -3.8403    3.3910 O.3       1 ACP        -0.5465
     14 C5'        -0.7840   -3.8935    2.2172 C.3       1 ACP         0.2108
     15 C4'        -0.0724   -3.1466    1.1027 C.3       1 ACP         0.0552
     16 O4'        -0.8674   -3.1929   -0.0945 O.3       1 ACP        -0.3428
     17 C3'         0.1338   -1.6715    1.4027 C.3       1 ACP         0.0750
     18 O3'         1.2893   -1.4445    2.1808 O.3       1 ACP        -0.6066
     19 C2'         0.2158   -1.0724    0.0128 C.3       1 ACP         0.1185
     20 O2'         1.5141   -1.2448   -0.5513 O.3       1 ACP        -0.5858
     21 C1'        -0.7897   -1.9176   -0.7583 C.3       1 ACP         0.3826
     22 N9         -2.1040   -1.3333   -0.7704 N.pl3     1 ACP        -0.5729
     23 C8         -3.0822   -1.4850    0.1102 C.ar      1 ACP         0.3288
     24 N7         -4.1844   -0.7999   -0.1888 N.pl3     1 ACP        -0.5338
     25 C5         -3.8875   -0.1651   -1.3445 C.ar      1 ACP        -0.2581
     26 C6         -4.5941    0.6799   -2.1486 C.ar      1 ACP         0.7413
     27 N6         -5.9138    1.0274   -1.7939 N.pl3     1 ACP        -0.9512
     28 N1         -4.0421    1.1824   -3.2748 N.ar      1 ACP        -0.7699
     29 C2         -2.7637    0.7937   -3.5405 C.ar      1 ACP         0.6898
     30 N3         -1.9788   -0.0343   -2.8139 N.ar      1 ACP        -0.6800
     31 C4         -2.5915   -0.4902   -1.7174 C.ar      1 ACP         0.6129
     32 HOG3       -4.4435   -8.3471    3.1998 H         1 ACP         0.4199
     33 H3B1       -0.4381   -8.7159    5.1127 H         1 ACP         0.0672
     34 H3B2       -1.9893   -8.4533    5.9146 H         1 ACP         0.0672
     35 H5'1       -0.9358   -4.9414    1.9395 H         1 ACP         0.0277
     36 H5'2       -1.7558   -3.4349    2.4258 H         1 ACP         0.0277
     37 H4'         0.8886   -3.6447    0.8779 H         1 ACP         0.1249
     38 H3'        -0.7373   -1.2359    1.9870 H         1 ACP         0.0564
     39 HO3'        1.1626   -1.9325    3.0084 H         1 ACP         0.4511
     40 H2'        -0.0384   -0.0310    0.0096 H         1 ACP         0.0716
     41 HO2'        2.1463   -0.7958    0.0370 H         1 ACP         0.4454
     42 H1'        -0.4769   -2.1002   -1.8093 H         1 ACP         0.1310
     43 H8         -3.0031   -2.1011    0.9891 H         1 ACP         0.3565
     44 HN61       -6.3271    0.6117   -0.9836 H         1 ACP         0.4414
     45 HN62       -6.4471    1.6092   -2.4083 H         1 ACP         0.4414
     46 H2         -2.3243    1.1986   -4.4449 H         1 ACP         0.0676
     47 H47        -5.0436   -0.7722    0.3425 H         1 ACP         0.5052
@<TRIPOS>BOND
     1    1    2 2
     2    1    3 1
     3    1    4 1
     4    1    8 1
     5    4   32 1
     6    5    6 2
     7    5    7 1
     8    5    8 1
     9    5   12 1
    10    8   33 1
    11    8   34 1
    12    9   10 2
    13    9   11 1
    14    9   12 1
    15    9   13 1
    16   13   14 1
    17   14   15 1
    18   14   35 1
    19   14   36 1
    20   15   16 1
    21   15   17 1
    22   15   37 1
    23   16   21 1
    24   17   18 1
    25   17   19 1
    26   17   38 1
    27   18   39 1
    28   19   20 1
    29   19   21 1
    30   19   40 1
    31   20   41 1
    32   21   22 1
    33   21   42 1
    34   22   23 ar
    35   22   31 ar
    36   23   24 ar
    37   23   43 1
    38   24   25 ar
    39   24   47 1
    40   25   26 ar
    41   25   31 ar
    42   26   27 1
    43   26   28 ar
    44   27   44 1
    45   27   45 1
    46   28   29 ar
    47   29   30 ar
    48   29   46 1
    49   30   31 ar
@<TRIPOS>SUBSTRUCTURE
     1 ACP         1 GROUP 0 A     ****
@<TRIPOS>MOLECULE
[[5-(6-amino-7,8-dihydropurin-8-ylium-9-yl)-3,4-dihydroxy-tetrahydrofuran-2-yl]methoxy-oxido-phosphoryl]oxy-[[hydroxy(oxido)phosphoryl]methyl]phosphinate
   47    49     1     0     0
SMALL
USER_CHARGES

@<TRIPOS>ATOM
      1 PG          5.1701   -4.0155   -2.2378 P.3       1 ACP         1.3755
      2 O1G         6.1710   -4.7291   -1.3593 O.co2     1 ACP        -0.8970
      3 O2G         3.9993   -4.7333   -2.8689 O.co2     1 ACP        -0.8970
      4 O3G         4.6351   -2.6778   -1.4736 O.3       1 ACP        -0.7959
      5 PB          5.3023   -2.1900   -4.9258 P.3       1 ACP         1.5194
      6 O1B         4.3452   -3.1009   -5.6584 O.co2     1 ACP        -0.8958
      7 O2B         6.3947   -1.4286   -5.6409 O.co2     1 ACP        -0.8958
      8 C3B         6.1089   -3.1897   -3.5975 C.3       1 ACP        -0.5612
      9 PA          3.3324   -0.0529   -4.3266 P.3       1 ACP         1.6019
     10 O1A         2.0985   -0.7700   -4.8296 O.co2     1 ACP        -0.9040
     11 O2A         3.9793    1.0390   -5.1511 O.co2     1 ACP        -0.9040
     12 O3A         4.4675   -1.1702   -3.9660 O.3       1 ACP        -0.8156
     13 O5'         3.0198    0.5138   -2.8245 O.3       1 ACP        -0.5465
     14 C5'         2.2816   -0.2918   -1.9206 C.3       1 ACP         0.2108
     15 C4'         2.7248    0.0226   -0.4980 C.3       1 ACP         0.0552
     16 O4'         2.4697    1.4219   -0.2462 O.3       1 ACP        -0.3428
     17 C3'         1.9404   -0.7419    0.5596 C.3       1 ACP         0.0750
     18 O3'         2.7418   -0.8086    1.7389 O.3       1 ACP        -0.6066
     19 C2'         0.7477    0.1630    0.7858 C.3       1 ACP         0.1185
     20 O2'         0.1373   -0.0577    2.0407 O.3       1 ACP        -0.5858
     21 C1'         1.3733    1.5427    0.6747 C.3       1 ACP         0.3826
     22 N9          0.4520    2.5240    0.1767 N.pl3     1 ACP        -0.5729
     23 C8         -0.5899    2.3466   -0.6224 C.ar      1 ACP         0.3288
     24 N7         -1.2514    3.4689   -0.8989 N.pl3     1 ACP        -0.5338
     25 C5         -0.5826    4.4323   -0.2272 C.ar      1 ACP        -0.2581
     26 C6         -0.7636    5.7789   -0.1086 C.ar      1 ACP         0.7413
     27 N6         -1.8382    6.3927   -0.7843 N.pl3     1 ACP        -0.9512
     28 N1          0.0741    6.5233    0.6461 N.ar      1 ACP        -0.7699
     29 C2          1.0845    5.8486    1.2626 C.ar      1 ACP         0.6898
     30 N3          1.3516    4.5236    1.2116 N.ar      1 ACP        -0.6800
     31 C4          0.4827    3.8546    0.4481 C.ar      1 ACP         0.6129
     32 HOG3        4.1818   -2.7822   -0.6100 H         1 ACP         0.4199
     33 H3B1        6.6709   -3.9828   -4.1032 H         1 ACP         0.0672
     34 H3B2        6.8376   -2.5271   -3.1174 H         1 ACP         0.0672
     35 H5'1        1.2153   -0.0781   -2.0454 H         1 ACP         0.0277
     36 H5'2        2.4645   -1.3454   -2.1547 H         1 ACP         0.0277
     37 H4'         3.8050   -0.1388   -0.4008 H         1 ACP         0.1249
     38 H3'         1.6784   -1.7629    0.2714 H         1 ACP         0.0564
     39 HO3'        2.2232   -1.2979    2.3953 H         1 ACP         0.4511
     40 H2'        -0.0011    0.0027    0.0003 H         1 ACP         0.0716
     41 HO2'       -0.6141    0.5574    2.1082 H         1 ACP         0.4454
     42 H1'         1.7826    1.9024    1.6451 H         1 ACP         0.1310
     43 H8         -0.8833    1.3888   -1.0158 H         1 ACP         0.3565
     44 HN61       -2.4225    5.8385   -1.3773 H         1 ACP         0.4414
     45 HN62       -1.9421    7.3862   -0.7348 H         1 ACP         0.4414
     46 H2          1.7546    6.4491    1.8670 H         1 ACP         0.0676
     47 H47        -2.0705    3.5612   -1.4834 H         1 ACP         0.5052
@<TRIPOS>BOND
     1    1    2 2
     2    1    3 1
     3    1    4 1
     4    1    8 1
     5    4   32 1
     6    5    6 2
     7    5    7 1
     8    5    8 1
     9    5   12 1
    10    8   33 1
    11    8   34 1
    12    9   10 2
    13    9   11 1
    14    9   12 1
    15    9   13 1
    16   13   14 1
    17   14   15 1
    18   14   35 1
    19   14   36 1
    20   15   16 1
    21   15   17 1
    22   15   37 1
    23   16   21 1
    24   17   18 1
    25   17   19 1
    26   17   38 1
    27   18   39 1
    28   19   20 1
    29   19   21 1
    30   19   40 1
    31   20   41 1
    32   21   22 1
    33   21   42 1
    34   22   23 ar
    35   22   31 ar
    36   23   24 ar
    37   23   43 1
    38   24   25 ar
    39   24   47 1
    40   25   26 ar
    41   25   31 ar
    42   26   27 1
    43   26   28 ar
    44   27   44 1
    45   27   45 1
    46   28   29 ar
    47   29   30 ar
    48   29   46 1
    49   30   31 ar
@<TRIPOS>SUBSTRUCTURE
     1 ACP         1 GROUP 0 A     ****
@<TRIPOS>MOLECULE
[[5-(6-amino-7,8-dihydropurin-8-ylium-9-yl)-3,4-dihydroxy-tetrahydrofuran-2-yl]methoxy-oxido-phosphoryl]oxy-[[hydroxy(oxido)phosphoryl]methyl]phosphinate
   47    49     1     0     0
SMALL
USER_CHARGES

@<TRIPOS>ATOM
      1 PG          2.1988   -4.7529   -3.4704 P.3       1 ACP         1.3755
      2 O1G         0.7932   -4.7690   -4.0245 O.co2     1 ACP        -0.8970
      3 O2G         2.5830   -3.9064   -2.2788 O.co2     1 ACP        -0.8970
      4 O3G         2.7040   -6.2848   -3.2300 O.3       1 ACP        -0.7959
      5 PB          3.2293   -2.7193   -5.7894 P.3       1 ACP         1.5194
      6 O1B         1.8608   -2.6650   -6.4274 O.co2     1 ACP        -0.8958
      7 O2B         4.4994   -2.5848   -6.5976 O.co2     1 ACP        -0.8958
      8 C3B         3.3397   -4.3087   -4.8536 C.3       1 ACP        -0.5612
      9 PA          3.0653   -0.0868   -4.4294 P.3       1 ACP         1.6019
     10 O1A         1.6188    0.2173   -4.7536 O.co2     1 ACP        -0.9040
     11 O2A         4.1847    0.5906   -5.1901 O.co2     1 ACP        -0.9040
     12 O3A         3.2848   -1.7027   -4.5160 O.3       1 ACP        -0.8156
     13 O5'         3.2883    0.1336   -2.8242 O.3       1 ACP        -0.5465
     14 C5'         2.2816   -0.2918   -1.9206 C.3       1 ACP         0.2108
     15 C4'         2.7248    0.0226   -0.4980 C.3       1 ACP         0.0552
     16 O4'         2.4697    1.4219   -0.2462 O.3       1 ACP        -0.3428
     17 C3'         1.9404   -0.7419    0.5596 C.3       1 ACP         0.0750
     18 O3'         2.7418   -0.8086    1.7389 O.3       1 ACP        -0.6066
     19 C2'         0.7477    0.1630    0.7858 C.3       1 ACP         0.1185
     20 O2'         0.1373   -0.0577    2.0407 O.3       1 ACP        -0.5858
     21 C1'         1.3733    1.5427    0.6747 C.3       1 ACP         0.3826
     22 N9          0.4520    2.5240    0.1767 N.pl3     1 ACP        -0.5729
     23 C8         -0.6854    2.9365    0.7168 C.ar      1 ACP         0.3288
     24 N7         -1.3118    3.8692    0.0018 N.pl3     1 ACP        -0.5338
     25 C5         -0.5159    4.0659   -1.0727 C.ar      1 ACP        -0.2581
     26 C6         -0.6068    4.8856   -2.1589 C.ar      1 ACP         0.7413
     27 N6         -1.7186    5.7437   -2.2844 N.pl3     1 ACP        -0.9512
     28 N1          0.3541    4.8807   -3.1087 N.ar      1 ACP        -0.7699
     29 C2          1.3913    4.0207   -2.9071 C.ar      1 ACP         0.6898
     30 N3          1.5770    3.1707   -1.8715 N.ar      1 ACP        -0.6800
     31 C4          0.5883    3.2318   -0.9747 C.ar      1 ACP         0.6129
     32 HOG3        2.1968   -6.8531   -2.6120 H         1 ACP         0.4199
     33 H3B1        3.2469   -5.1120   -5.5930 H         1 ACP         0.0672
     34 H3B2        4.3563   -4.3533   -4.4476 H         1 ACP         0.0672
     35 H5'1        1.3500    0.2325   -2.1560 H         1 ACP         0.0277
     36 H5'2        2.1267   -1.3683   -2.0444 H         1 ACP         0.0277
     37 H4'         3.8050   -0.1388   -0.4008 H         1 ACP         0.1249
     38 H3'         1.6784   -1.7629    0.2714 H         1 ACP         0.0564
     39 HO3'        2.2232   -1.2979    2.3953 H         1 ACP         0.4511
     40 H2'        -0.0011    0.0027    0.0003 H         1 ACP         0.0716
     41 HO2'       -0.1563   -0.9855    2.0596 H         1 ACP         0.4454
     42 H1'         1.7826    1.9024    1.6451 H         1 ACP         0.1310
     43 H8         -1.0749    2.5601    1.6468 H         1 ACP         0.3565
     44 HN61       -2.4460    5.7038   -1.5992 H         1 ACP         0.4414
     45 HN62       -1.8079    6.3099   -3.1040 H         1 ACP         0.4414
     46 H2          2.1601    4.0194   -3.6712 H         1 ACP         0.0676
     47 H47        -2.1877    4.3195    0.2279 H         1 ACP         0.5052
@<TRIPOS>BOND
     1    1    2 2
     2    1    3 1
     3    1    4 1
     4    1    8 1
     5    4   32 1
     6    5    6 2
     7    5    7 1
     8    5    8 1
     9    5   12 1
    10    8   33 1
    11    8   34 1
    12    9   10 2
    13    9   11 1
    14    9   12 1
    15    9   13 1
    16   13   14 1
    17   14   15 1
    18   14   35 1
    19   14   36 1
    20   15   16 1
    21   15   17 1
    22   15   37 1
    23   16   21 1
    24   17   18 1
    25   17   19 1
    26   17   38 1
    27   18   39 1
    28   19   20 1
    29   19   21 1
    30   19   40 1
    31   20   41 1
    32   21   22 1
    33   21   42 1
    34   22   23 ar
    35   22   31 ar
    36   23   24 ar
    37   23   43 1
    38   24   25 ar
    39   24   47 1
    40   25   26 ar
    41   25   31 ar
    42   26   27 1
    43   26   28 ar
    44   27   44 1
    45   27   45 1
    46   28   29 ar
    47   29   30 ar
    48   29   46 1
    49   30   31 ar
@<TRIPOS>SUBSTRUCTURE
     1 ACP         1 GROUP 0 A     ****
@<TRIPOS>MOLECULE
[[5-(6-amino-7,8-dihydropurin-8-ylium-9-yl)-3,4-dihydroxy-tetrahydrofuran-2-yl]methoxy-oxido-phosphoryl]oxy-[[hydroxy(oxido)phosphoryl]methyl]phosphinate
   47    49     1     0     0
SMALL
USER_CHARGES

@<TRIPOS>ATOM
      1 PG         -1.5628   -5.3316   -2.8968 P.3       1 ACP         1.3755
      2 O1G        -0.5199   -4.8862   -1.8984 O.co2     1 ACP        -0.8970
      3 O2G        -1.7146   -4.6724   -4.2483 O.co2     1 ACP        -0.8970
      4 O3G        -1.4706   -6.9482   -3.0918 O.3       1 ACP        -0.7959
      5 PB         -3.6194   -6.2312   -0.5438 P.3       1 ACP         1.5194
      6 O1B        -3.4655   -7.6933   -0.8920 O.co2     1 ACP        -0.8958
      7 O2B        -4.9057   -5.6687    0.0159 O.co2     1 ACP        -0.8958
      8 C3B        -3.2071   -5.2565   -2.0584 C.3       1 ACP        -0.5612
      9 PA         -1.8573   -6.2723    1.8436 P.3       1 ACP         1.6019
     10 O1A        -1.3494   -7.6898    1.6944 O.co2     1 ACP        -0.9040
     11 O2A        -2.9186   -5.9375    2.8694 O.co2     1 ACP        -0.9040
     12 O3A        -2.3670   -5.7503    0.3826 O.3       1 ACP        -0.8156
     13 O5'        -0.5697   -5.2855    2.0524 O.3       1 ACP        -0.5465
     14 C5'        -0.7840   -3.8935    2.2172 C.3       1 ACP         0.2108
     15 C4'        -0.0724   -3.1466    1.1027 C.3       1 ACP         0.0552
     16 O4'        -0.8674   -3.1929   -0.0945 O.3       1 ACP        -0.3428
     17 C3'         0.1338   -1.6715    1.4027 C.3       1 ACP         0.0750
     18 O3'         1.2893   -1.4445    2.1808 O.3       1 ACP        -0.6066
     19 C2'         0.2158   -1.0724    0.0128 C.3       1 ACP         0.1185
     20 O2'         1.5141   -1.2448   -0.5513 O.3       1 ACP        -0.5858
     21 C1'        -0.7897   -1.9176   -0.7583 C.3       1 ACP         0.3826
     22 N9         -2.1040   -1.3333   -0.7704 N.pl3     1 ACP        -0.5729
     23 C8         -3.0822   -1.4850    0.1102 C.ar      1 ACP         0.3288
     24 N7         -4.1844   -0.7999   -0.1888 N.pl3     1 ACP        -0.5338
     25 C5         -3.8875   -0.1651   -1.3445 C.ar      1 ACP        -0.2581
     26 C6         -4.5941    0.6799   -2.1486 C.ar      1 ACP         0.7413
     27 N6         -5.9138    1.0274   -1.7939 N.pl3     1 ACP        -0.9512
     28 N1         -4.0421    1.1824   -3.2748 N.ar      1 ACP        -0.7699
     29 C2         -2.7637    0.7937   -3.5405 C.ar      1 ACP         0.6898
     30 N3         -1.9788   -0.0343   -2.8139 N.ar      1 ACP        -0.6800
     31 C4         -2.5915   -0.4902   -1.7174 C.ar      1 ACP         0.6129
     32 HOG3       -0.6295   -7.3327   -3.4187 H         1 ACP         0.4199
     33 H3B1       -3.9473   -5.5332   -2.8174 H         1 ACP         0.0672
     34 H3B2       -3.3795   -4.2056   -1.8008 H         1 ACP         0.0672
     35 H5'1       -1.8599   -3.6946    2.1849 H         1 ACP         0.0277
     36 H5'2       -0.3934   -3.5881    3.1930 H         1 ACP         0.0277
     37 H4'         0.8886   -3.6447    0.8779 H         1 ACP         0.1249
     38 H3'        -0.7373   -1.2359    1.9870 H         1 ACP         0.0564
     39 HO3'        1.3408   -0.4870    2.3219 H         1 ACP         0.4511
     40 H2'        -0.0384   -0.0310    0.0096 H         1 ACP         0.0716
     41 HO2'        2.1463   -0.7958    0.0370 H         1 ACP         0.4454
     42 H1'        -0.4769   -2.1002   -1.8093 H         1 ACP         0.1310
     43 H8         -3.0031   -2.1011    0.9891 H         1 ACP         0.3565
     44 HN61       -6.3271    0.6117   -0.9836 H         1 ACP         0.4414
     45 HN62       -6.4471    1.6092   -2.4083 H         1 ACP         0.4414
     46 H2         -2.3243    1.1986   -4.4449 H         1 ACP         0.0676
     47 H47        -5.0436   -0.7722    0.3425 H         1 ACP         0.5052
@<TRIPOS>BOND
     1    1    2 2
     2    1    3 1
     3    1    4 1
     4    1    8 1
     5    4   32 1
     6    5    6 2
     7    5    7 1
     8    5    8 1
     9    5   12 1
    10    8   33 1
    11    8   34 1
    12    9   10 2
    13    9   11 1
    14    9   12 1
    15    9   13 1
    16   13   14 1
    17   14   15 1
    18   14   35 1
    19   14   36 1
    20   15   16 1
    21   15   17 1
    22   15   37 1
    23   16   21 1
    24   17   18 1
    25   17   19 1
    26   17   38 1
    27   18   39 1
    28   19   20 1
    29   19   21 1
    30   19   40 1
    31   20   41 1
    32   21   22 1
    33   21   42 1
    34   22   23 ar
    35   22   31 ar
    36   23   24 ar
    37   23   43 1
    38   24   25 ar
    39   24   47 1
    40   25   26 ar
    41   25   31 ar
    42   26   27 1
    43   26   28 ar
    44   27   44 1
    45   27   45 1
    46   28   29 ar
    47   29   30 ar
    48   29   46 1
    49   30   31 ar
@<TRIPOS>SUBSTRUCTURE
     1 ACP         1 GROUP 0 A     ****
@<TRIPOS>MOLECULE
[[5-(6-amino-7,8-dihydropurin-8-ylium-9-yl)-3,4-dihydroxy-tetrahydrofuran-2-yl]methoxy-oxido-phosphoryl]oxy-[[hydroxy(oxido)phosphoryl]methyl]phosphinate
   47    49     1     0     0
SMALL
USER_CHARGES

@<TRIPOS>ATOM
      1 PG         -4.0963   -5.2455    7.5598 P.3       1 ACP         1.3755
      2 O1G        -5.5449   -5.6483    7.7085 O.co2     1 ACP        -0.8970
      3 O2G        -3.6616   -3.7980    7.5514 O.co2     1 ACP        -0.8970
      4 O3G        -3.1904   -6.0751    8.6326 O.3       1 ACP        -0.7959
      5 PB         -1.7212   -5.8117    5.4119 P.3       1 ACP         1.5194
      6 O1B        -1.5892   -6.5944    4.1264 O.co2     1 ACP        -0.8958
      7 O2B        -0.8068   -6.0441    6.5926 O.co2     1 ACP        -0.8958
      8 C3B        -3.4563   -6.0228    6.0112 C.3       1 ACP        -0.5612
      9 PA         -0.6036   -3.1462    4.7389 P.3       1 ACP         1.6019
     10 O1A         0.4415   -3.2242    5.8304 O.co2     1 ACP        -0.9040
     11 O2A        -1.2428   -1.8231    4.3766 O.co2     1 ACP        -0.9040
     12 O3A        -1.7885   -4.2165    5.0818 O.3       1 ACP        -0.8156
     13 O5'         0.0099   -3.8403    3.3910 O.3       1 ACP        -0.5465
     14 C5'        -0.7840   -3.8935    2.2172 C.3       1 ACP         0.2108
     15 C4'        -0.0724   -3.1466    1.1027 C.3       1 ACP         0.0552
     16 O4'        -0.8674   -3.1929   -0.0945 O.3       1 ACP        -0.3428
     17 C3'         0.1338   -1.6715    1.4027 C.3       1 ACP         0.0750
     18 O3'         1.2893   -1.4445    2.1808 O.3       1 ACP        -0.6066
     19 C2'         0.2158   -1.0724    0.0128 C.3       1 ACP         0.1185
     20 O2'         1.5141   -1.2448   -0.5513 O.3       1 ACP        -0.5858
     21 C1'        -0.7897   -1.9176   -0.7583 C.3       1 ACP         0.3826
     22 N9         -2.1040   -1.3333   -0.7704 N.pl3     1 ACP        -0.5729
     23 C8         -3.0822   -1.4850    0.1102 C.ar      1 ACP         0.3288
     24 N7         -4.1844   -0.7999   -0.1888 N.pl3     1 ACP        -0.5338
     25 C5         -3.8875   -0.1651   -1.3445 C.ar      1 ACP        -0.2581
     26 C6         -4.5941    0.6799   -2.1486 C.ar      1 ACP         0.7413
     27 N6         -5.9138    1.0274   -1.7939 N.pl3     1 ACP        -0.9512
     28 N1         -4.0421    1.1824   -3.2748 N.ar      1 ACP        -0.7699
     29 C2         -2.7637    0.7937   -3.5405 C.ar      1 ACP         0.6898
     30 N3         -1.9788   -0.0343   -2.8139 N.ar      1 ACP        -0.6800
     31 C4         -2.5915   -0.4902   -1.7174 C.ar      1 ACP         0.6129
     32 HOG3       -3.3836   -5.9696    9.5885 H         1 ACP         0.4199
     33 H3B1       -4.1089   -5.6724    5.2039 H         1 ACP         0.0672
     34 H3B2       -3.6138   -7.1022    6.1144 H         1 ACP         0.0672
     35 H5'1       -0.9358   -4.9414    1.9395 H         1 ACP         0.0277
     36 H5'2       -1.7558   -3.4349    2.4258 H         1 ACP         0.0277
     37 H4'         0.8886   -3.6447    0.8779 H         1 ACP         0.1249
     38 H3'        -0.7373   -1.2359    1.9870 H         1 ACP         0.0564
     39 HO3'        1.1626   -1.9325    3.0084 H         1 ACP         0.4511
     40 H2'        -0.0384   -0.0310    0.0096 H         1 ACP         0.0716
     41 HO2'        2.1463   -0.7958    0.0370 H         1 ACP         0.4454
     42 H1'        -0.4769   -2.1002   -1.8093 H         1 ACP         0.1310
     43 H8         -3.0031   -2.1011    0.9891 H         1 ACP         0.3565
     44 HN61       -6.3271    0.6117   -0.9836 H         1 ACP         0.4414
     45 HN62       -6.4471    1.6092   -2.4083 H         1 ACP         0.4414
     46 H2         -2.3243    1.1986   -4.4449 H         1 ACP         0.0676
     47 H47        -5.0436   -0.7722    0.3425 H         1 ACP         0.5052
@<TRIPOS>BOND
     1    1    2 2
     2    1    3 1
     3    1    4 1
     4    1    8 1
     5    4   32 1
     6    5    6 2
     7    5    7 1
     8    5    8 1
     9    5   12 1
    10    8   33 1
    11    8   34 1
    12    9   10 2
    13    9   11 1
    14    9   12 1
    15    9   13 1
    16   13   14 1
    17   14   15 1
    18   14   35 1
    19   14   36 1
    20   15   16 1
    21   15   17 1
    22   15   37 1
    23   16   21 1
    24   17   18 1
    25   17   19 1
    26   17   38 1
    27   18   39 1
    28   19   20 1
    29   19   21 1
    30   19   40 1
    31   20   41 1
    32   21   22 1
    33   21   42 1
    34   22   23 ar
    35   22   31 ar
    36   23   24 ar
    37   23   43 1
    38   24   25 ar
    39   24   47 1
    40   25   26 ar
    41   25   31 ar
    42   26   27 1
    43   26   28 ar
    44   27   44 1
    45   27   45 1
    46   28   29 ar
    47   29   30 ar
    48   29   46 1
    49   30   31 ar
@<TRIPOS>SUBSTRUCTURE
     1 ACP         1 GROUP 0 A     ****
@<TRIPOS>MOLECULE
[[5-(6-amino-7,8-dihydropurin-8-ylium-9-yl)-3,4-dihydroxy-tetrahydrofuran-2-yl]methoxy-oxido-phosphoryl]oxy-[[hydroxy(oxido)phosphoryl]methyl]phosphinate
   47    49     1     0     0
SMALL
USER_CHARGES

@<TRIPOS>ATOM
      1 PG         -0.2006   -4.2288   -4.5976 P.3       1 ACP         1.3755
      2 O1G         0.1777   -3.7385   -3.2195 O.co2     1 ACP        -0.8970
      3 O2G         0.0820   -5.6418   -5.0534 O.co2     1 ACP        -0.8970
      4 O3G        -1.7643   -3.8695   -4.8902 O.3       1 ACP        -0.7959
      5 PB          0.2060   -1.2776   -5.9016 P.3       1 ACP         1.5194
      6 O1B        -1.2752   -1.1256   -6.1574 O.co2     1 ACP        -0.8958
      7 O2B         1.2460   -0.6456   -6.7979 O.co2     1 ACP        -0.8958
      8 C3B         0.5710   -3.0874   -5.8281 C.3       1 ACP        -0.5612
      9 PA          0.3066    0.4590   -3.4972 P.3       1 ACP         1.6019
     10 O1A        -1.1822    0.6875   -3.3518 O.co2     1 ACP        -0.9040
     11 O2A         1.1988    1.5353   -4.0768 O.co2     1 ACP        -0.9040
     12 O3A         0.5368   -0.9168   -4.3464 O.3       1 ACP        -0.8156
     13 O5'         0.8970   -0.0132   -2.0468 O.3       1 ACP        -0.5465
     14 C5'         2.2816   -0.2918   -1.9206 C.3       1 ACP         0.2108
     15 C4'         2.7248    0.0226   -0.4980 C.3       1 ACP         0.0552
     16 O4'         2.4697    1.4219   -0.2462 O.3       1 ACP        -0.3428
     17 C3'         1.9404   -0.7419    0.5596 C.3       1 ACP         0.0750
     18 O3'         2.7418   -0.8086    1.7389 O.3       1 ACP        -0.6066
     19 C2'         0.7477    0.1630    0.7858 C.3       1 ACP         0.1185
     20 O2'         0.1373   -0.0577    2.0407 O.3       1 ACP        -0.5858
     21 C1'         1.3733    1.5427    0.6747 C.3       1 ACP         0.3826
     22 N9          0.4520    2.5240    0.1767 N.pl3     1 ACP        -0.5729
     23 C8          0.5305    3.2394   -0.9358 C.ar      1 ACP         0.3288
     24 N7         -0.4966    4.0680   -1.1145 N.pl3     1 ACP        -0.5338
     25 C5         -1.2879    3.8664   -0.0375 C.ar      1 ACP        -0.2581
     26 C6         -2.4754    4.4084    0.3577 C.ar      1 ACP         0.7413
     27 N6         -3.0892    5.3882   -0.4495 N.pl3     1 ACP        -0.9512
     28 N1         -3.0632    4.0158    1.5092 N.ar      1 ACP        -0.7699
     29 C2         -2.4008    3.0654    2.2262 C.ar      1 ACP         0.6898
     30 N3         -1.2259    2.4663    1.9260 N.ar      1 ACP        -0.6800
     31 C4         -0.7062    2.9047    0.7757 C.ar      1 ACP         0.6129
     32 HOG3       -2.4491   -4.2415   -4.2945 H         1 ACP         0.4199
     33 H3B1        0.3250   -3.4945   -6.8152 H         1 ACP         0.0672
     34 H3B2        1.6555   -3.1745   -5.6990 H         1 ACP         0.0672
     35 H5'1        2.4525   -1.3484   -2.1500 H         1 ACP         0.0277
     36 H5'2        2.8335    0.3232   -2.6384 H         1 ACP         0.0277
     37 H4'         3.8050   -0.1388   -0.4008 H         1 ACP         0.1249
     38 H3'         1.6784   -1.7629    0.2714 H         1 ACP         0.0564
     39 HO3'        2.2232   -1.2979    2.3953 H         1 ACP         0.4511
     40 H2'        -0.0011    0.0027    0.0003 H         1 ACP         0.0716
     41 HO2'       -0.1563   -0.9855    2.0596 H         1 ACP         0.4454
     42 H1'         1.7826    1.9024    1.6451 H         1 ACP         0.1310
     43 H8          1.3437    3.1645   -1.6367 H         1 ACP         0.3565
     44 HN61       -2.6210    5.7042   -1.2748 H         1 ACP         0.4414
     45 HN62       -3.9356    5.8187   -0.1356 H         1 ACP         0.4414
     46 H2         -2.8752    2.7532    3.1495 H         1 ACP         0.0676
     47 H47        -0.6372    4.7004   -1.8900 H         1 ACP         0.5052
@<TRIPOS>BOND
     1    1    2 2
     2    1    3 1
     3    1    4 1
     4    1    8 1
     5    4   32 1
     6    5    6 2
     7    5    7 1
     8    5    8 1
     9    5   12 1
    10    8   33 1
    11    8   34 1
    12    9   10 2
    13    9   11 1
    14    9   12 1
    15    9   13 1
    16   13   14 1
    17   14   15 1
    18   14   35 1
    19   14   36 1
    20   15   16 1
    21   15   17 1
    22   15   37 1
    23   16   21 1
    24   17   18 1
    25   17   19 1
    26   17   38 1
    27   18   39 1
    28   19   20 1
    29   19   21 1
    30   19   40 1
    31   20   41 1
    32   21   22 1
    33   21   42 1
    34   22   23 ar
    35   22   31 ar
    36   23   24 ar
    37   23   43 1
    38   24   25 ar
    39   24   47 1
    40   25   26 ar
    41   25   31 ar
    42   26   27 1
    43   26   28 ar
    44   27   44 1
    45   27   45 1
    46   28   29 ar
    47   29   30 ar
    48   29   46 1
    49   30   31 ar
@<TRIPOS>SUBSTRUCTURE
     1 ACP         1 GROUP 0 A     ****
@<TRIPOS>MOLECULE
[[5-(6-amino-7,8-dihydropurin-8-ylium-9-yl)-3,4-dihydroxy-tetrahydrofuran-2-yl]methoxy-oxido-phosphoryl]oxy-[[hydroxy(oxido)phosphoryl]methyl]phosphinate
   47    49     1     0     0
SMALL
USER_CHARGES

@<TRIPOS>ATOM
      1 PG          6.5119   -0.8606   -5.1777 P.3       1 ACP         1.3755
      2 O1G         6.0830   -0.8104   -3.7298 O.co2     1 ACP        -0.8970
      3 O2G         7.6546   -0.0248   -5.7068 O.co2     1 ACP        -0.8970
      4 O3G         6.7265   -2.4140   -5.6257 O.3       1 ACP        -0.7959
      5 PB          3.4884   -1.5062   -6.1864 P.3       1 ACP         1.5194
      6 O1B         3.8678   -2.9076   -6.6045 O.co2     1 ACP        -0.8958
      7 O2B         2.4145   -0.7171   -6.8993 O.co2     1 ACP        -0.8958
      8 C3B         5.0287   -0.4859   -6.2132 C.3       1 ACP        -0.5612
      9 PA          2.1362   -2.2698   -3.6575 P.3       1 ACP         1.6019
     10 O1A         2.4953   -3.7397   -3.6734 O.co2     1 ACP        -0.9040
     11 O2A         0.7453   -1.8118   -4.0395 O.co2     1 ACP        -0.9040
     12 O3A         3.2175   -1.4646   -4.5792 O.3       1 ACP        -0.8156
     13 O5'         2.5237   -1.6631   -2.1889 O.3       1 ACP        -0.5465
     14 C5'         2.2816   -0.2918   -1.9206 C.3       1 ACP         0.2108
     15 C4'         2.7248    0.0226   -0.4980 C.3       1 ACP         0.0552
     16 O4'         2.4697    1.4219   -0.2462 O.3       1 ACP        -0.3428
     17 C3'         1.9404   -0.7419    0.5596 C.3       1 ACP         0.0750
     18 O3'         2.7418   -0.8086    1.7389 O.3       1 ACP        -0.6066
     19 C2'         0.7477    0.1630    0.7858 C.3       1 ACP         0.1185
     20 O2'         0.1373   -0.0577    2.0407 O.3       1 ACP        -0.5858
     21 C1'         1.3733    1.5427    0.6747 C.3       1 ACP         0.3826
     22 N9          0.4520    2.5240    0.1767 N.pl3     1 ACP        -0.5729
     23 C8         -0.3477    3.3274    0.8626 C.ar      1 ACP         0.3288
     24 N7         -1.0836    4.1323    0.0983 N.pl3     1 ACP        -0.5338
     25 C5         -0.7273    3.8194   -1.1674 C.ar      1 ACP        -0.2581
     26 C6         -1.1208    4.2877   -2.3863 C.ar      1 ACP         0.7413
     27 N6         -2.0932    5.3066   -2.4528 N.pl3     1 ACP        -0.9512
     28 N1         -0.5892    3.7853   -3.5223 N.ar      1 ACP        -0.7699
     29 C2          0.3427    2.8040   -3.3648 C.ar      1 ACP         0.6898
     30 N3          0.8012    2.2709   -2.2093 N.ar      1 ACP        -0.6800
     31 C4          0.2307    2.8167   -1.1312 C.ar      1 ACP         0.6129
     32 HOG3        7.3937   -2.9509   -5.1473 H         1 ACP         0.4199
     33 H3B1        5.3781   -0.4776   -7.2516 H         1 ACP         0.0672
     34 H3B2        4.7219    0.5356   -5.9627 H         1 ACP         0.0672
     35 H5'1        2.8429    0.3140   -2.6391 H         1 ACP         0.0277
     36 H5'2        1.2125   -0.0906   -2.0420 H         1 ACP         0.0277
     37 H4'         3.8050   -0.1388   -0.4008 H         1 ACP         0.1249
     38 H3'         1.6784   -1.7629    0.2714 H         1 ACP         0.0564
     39 HO3'        2.2232   -1.2979    2.3953 H         1 ACP         0.4511
     40 H2'        -0.0011    0.0027    0.0003 H         1 ACP         0.0716
     41 HO2'       -0.6141    0.5574    2.1082 H         1 ACP         0.4454
     42 H1'         1.7826    1.9024    1.6451 H         1 ACP         0.1310
     43 H8         -0.4040    3.3373    1.9373 H         1 ACP         0.3565
     44 HN61       -2.5133    5.6366   -1.6073 H         1 ACP         0.4414
     45 HN62       -2.4153    5.6161   -3.3477 H         1 ACP         0.4414
     46 H2          0.7668    2.4032   -4.2782 H         1 ACP         0.0676
     47 H47        -1.7549    4.8194    0.4122 H         1 ACP         0.5052
@<TRIPOS>BOND
     1    1    2 2
     2    1    3 1
     3    1    4 1
     4    1    8 1
     5    4   32 1
     6    5    6 2
     7    5    7 1
     8    5    8 1
     9    5   12 1
    10    8   33 1
    11    8   34 1
    12    9   10 2
    13    9   11 1
    14    9   12 1
    15    9   13 1
    16   13   14 1
    17   14   15 1
    18   14   35 1
    19   14   36 1
    20   15   16 1
    21   15   17 1
    22   15   37 1
    23   16   21 1
    24   17   18 1
    25   17   19 1
    26   17   38 1
    27   18   39 1
    28   19   20 1
    29   19   21 1
    30   19   40 1
    31   20   41 1
    32   21   22 1
    33   21   42 1
    34   22   23 ar
    35   22   31 ar
    36   23   24 ar
    37   23   43 1
    38   24   25 ar
    39   24   47 1
    40   25   26 ar
    41   25   31 ar
    42   26   27 1
    43   26   28 ar
    44   27   44 1
    45   27   45 1
    46   28   29 ar
    47   29   30 ar
    48   29   46 1
    49   30   31 ar
@<TRIPOS>SUBSTRUCTURE
     1 ACP         1 GROUP 0 A     ****
@<TRIPOS>MOLECULE
[[5-(6-amino-7,8-dihydropurin-8-ylium-9-yl)-3,4-dihydroxy-tetrahydrofuran-2-yl]methoxy-oxido-phosphoryl]oxy-[[hydroxy(oxido)phosphoryl]methyl]phosphinate
   47    49     1     0     0
SMALL
USER_CHARGES

@<TRIPOS>ATOM
      1 PG          7.4498   -1.2755   -0.6110 P.3       1 ACP         1.3755
      2 O1G         7.7938   -1.9049    0.7188 O.co2     1 ACP        -0.8970
      3 O2G         6.6227   -0.0147   -0.7133 O.co2     1 ACP        -0.8970
      4 O3G         8.8086   -1.1033   -1.4965 O.3       1 ACP        -0.7959
      5 PB          6.0159   -2.2560   -3.3602 P.3       1 ACP         1.5194
      6 O1B         5.4034   -3.5429   -3.8614 O.co2     1 ACP        -0.8958
      7 O2B         7.1242   -1.5488   -4.1058 O.co2     1 ACP        -0.8958
      8 C3B         6.6203   -2.5647   -1.6416 C.3       1 ACP        -0.5612
      9 PA          3.9534   -0.2075   -3.9573 P.3       1 ACP         1.6019
     10 O1A         3.0635   -1.0663   -4.8291 O.co2     1 ACP        -0.9040
     11 O2A         4.8781    0.8194   -4.5746 O.co2     1 ACP        -0.9040
     12 O3A         4.8377   -1.1891   -2.9974 O.3       1 ACP        -0.8156
     13 O5'         3.0198    0.5138   -2.8245 O.3       1 ACP        -0.5465
     14 C5'         2.2816   -0.2918   -1.9206 C.3       1 ACP         0.2108
     15 C4'         2.7248    0.0226   -0.4980 C.3       1 ACP         0.0552
     16 O4'         2.4697    1.4219   -0.2462 O.3       1 ACP        -0.3428
     17 C3'         1.9404   -0.7419    0.5596 C.3       1 ACP         0.0750
     18 O3'         2.7418   -0.8086    1.7389 O.3       1 ACP        -0.6066
     19 C2'         0.7477    0.1630    0.7858 C.3       1 ACP         0.1185
     20 O2'         0.1373   -0.0577    2.0407 O.3       1 ACP        -0.5858
     21 C1'         1.3733    1.5427    0.6747 C.3       1 ACP         0.3826
     22 N9          0.4520    2.5240    0.1767 N.pl3     1 ACP        -0.5729
     23 C8         -0.8602    2.5861    0.3496 C.ar      1 ACP         0.3288
     24 N7         -1.4308    3.6326   -0.2443 N.pl3     1 ACP        -0.5338
     25 C5         -0.4080    4.2856   -0.8394 C.ar      1 ACP        -0.2581
     26 C6         -0.3432    5.4196   -1.5943 C.ar      1 ACP         0.7413
     27 N6         -1.5276    6.1333   -1.8702 N.pl3     1 ACP        -0.9512
     28 N1          0.8395    5.8603   -2.0764 N.ar      1 ACP        -0.7699
     29 C2          1.9319    5.1095   -1.7617 C.ar      1 ACP         0.6898
     30 N3          1.9773    3.9761   -1.0249 N.ar      1 ACP        -0.6800
     31 C4          0.7724    3.6031   -0.5836 C.ar      1 ACP         0.6129
     32 HOG3        9.5343   -0.5500   -1.1369 H         1 ACP         0.4199
     33 H3B1        5.7535   -2.9036   -1.0634 H         1 ACP         0.0672
     34 H3B2        7.3176   -3.4070   -1.7105 H         1 ACP         0.0672
     35 H5'1        1.2153   -0.0781   -2.0454 H         1 ACP         0.0277
     36 H5'2        2.4645   -1.3454   -2.1547 H         1 ACP         0.0277
     37 H4'         3.8050   -0.1388   -0.4008 H         1 ACP         0.1249
     38 H3'         1.6784   -1.7629    0.2714 H         1 ACP         0.0564
     39 HO3'        2.2232   -1.2979    2.3953 H         1 ACP         0.4511
     40 H2'        -0.0011    0.0027    0.0003 H         1 ACP         0.0716
     41 HO2'       -0.1563   -0.9855    2.0596 H         1 ACP         0.4454
     42 H1'         1.7826    1.9024    1.6451 H         1 ACP         0.1310
     43 H8         -1.4217    1.8638    0.9164 H         1 ACP         0.3565
     44 HN61       -2.4023    5.7711   -1.5477 H         1 ACP         0.4414
     45 HN62       -1.4857    6.9379   -2.4627 H         1 ACP         0.4414
     46 H2          2.8789    5.4660   -2.1503 H         1 ACP         0.0676
     47 H47        -2.4129    3.8706   -0.2402 H         1 ACP         0.5052
@<TRIPOS>BOND
     1    1    2 2
     2    1    3 1
     3    1    4 1
     4    1    8 1
     5    4   32 1
     6    5    6 2
     7    5    7 1
     8    5    8 1
     9    5   12 1
    10    8   33 1
    11    8   34 1
    12    9   10 2
    13    9   11 1
    14    9   12 1
    15    9   13 1
    16   13   14 1
    17   14   15 1
    18   14   35 1
    19   14   36 1
    20   15   16 1
    21   15   17 1
    22   15   37 1
    23   16   21 1
    24   17   18 1
    25   17   19 1
    26   17   38 1
    27   18   39 1
    28   19   20 1
    29   19   21 1
    30   19   40 1
    31   20   41 1
    32   21   22 1
    33   21   42 1
    34   22   23 ar
    35   22   31 ar
    36   23   24 ar
    37   23   43 1
    38   24   25 ar
    39   24   47 1
    40   25   26 ar
    41   25   31 ar
    42   26   27 1
    43   26   28 ar
    44   27   44 1
    45   27   45 1
    46   28   29 ar
    47   29   30 ar
    48   29   46 1
    49   30   31 ar
@<TRIPOS>SUBSTRUCTURE
     1 ACP         1 GROUP 0 A     ****
@<TRIPOS>MOLECULE
[[5-(6-amino-7,8-dihydropurin-8-ylium-9-yl)-3,4-dihydroxy-tetrahydrofuran-2-yl]methoxy-oxido-phosphoryl]oxy-[[hydroxy(oxido)phosphoryl]methyl]phosphinate
   47    49     1     0     0
SMALL
USER_CHARGES

@<TRIPOS>ATOM
      1 PG          5.0208    0.4195   -5.5628 P.3       1 ACP         1.3755
      2 O1G         5.7887    0.9276   -6.7607 O.co2     1 ACP        -0.8970
      3 O2G         5.2610    0.9527   -4.1692 O.co2     1 ACP        -0.8970
      4 O3G         3.4230    0.4575   -5.8876 O.3       1 ACP        -0.7959
      5 PB          4.4751   -2.4794   -4.1939 P.3       1 ACP         1.5194
      6 O1B         5.0076   -2.0115   -2.8597 O.co2     1 ACP        -0.8958
      7 O2B         4.6048   -3.9133   -4.6537 O.co2     1 ACP        -0.8958
      8 C3B         5.2371   -1.4138   -5.4970 C.3       1 ACP        -0.5612
      9 PA          1.5993   -2.3027   -3.4829 P.3       1 ACP         1.6019
     10 O1A         1.4644   -3.8029   -3.3383 O.co2     1 ACP        -0.9040
     11 O2A         0.4539   -1.4742   -4.0233 O.co2     1 ACP        -0.9040
     12 O3A         2.9310   -1.9881   -4.3743 O.3       1 ACP        -0.8156
     13 O5'         2.0818   -1.6902   -2.0452 O.3       1 ACP        -0.5465
     14 C5'         2.2816   -0.2918   -1.9206 C.3       1 ACP         0.2108
     15 C4'         2.7248    0.0226   -0.4980 C.3       1 ACP         0.0552
     16 O4'         2.4697    1.4219   -0.2462 O.3       1 ACP        -0.3428
     17 C3'         1.9404   -0.7419    0.5596 C.3       1 ACP         0.0750
     18 O3'         2.7418   -0.8086    1.7389 O.3       1 ACP        -0.6066
     19 C2'         0.7477    0.1630    0.7858 C.3       1 ACP         0.1185
     20 O2'         0.1373   -0.0577    2.0407 O.3       1 ACP        -0.5858
     21 C1'         1.3733    1.5427    0.6747 C.3       1 ACP         0.3826
     22 N9          0.4520    2.5240    0.1767 N.pl3     1 ACP        -0.5729
     23 C8          0.5305    3.2394   -0.9358 C.ar      1 ACP         0.3288
     24 N7         -0.4966    4.0680   -1.1145 N.pl3     1 ACP        -0.5338
     25 C5         -1.2879    3.8664   -0.0375 C.ar      1 ACP        -0.2581
     26 C6         -2.4754    4.4084    0.3577 C.ar      1 ACP         0.7413
     27 N6         -3.0892    5.3882   -0.4495 N.pl3     1 ACP        -0.9512
     28 N1         -3.0632    4.0158    1.5092 N.ar      1 ACP        -0.7699
     29 C2         -2.4008    3.0654    2.2262 C.ar      1 ACP         0.6898
     30 N3         -1.2259    2.4663    1.9260 N.ar      1 ACP        -0.6800
     31 C4         -0.7062    2.9047    0.7757 C.ar      1 ACP         0.6129
     32 HOG3        3.0099    1.3206   -6.1032 H         1 ACP         0.4199
     33 H3B1        6.3174   -1.5902   -5.4504 H         1 ACP         0.0672
     34 H3B2        4.8825   -1.8056   -6.4568 H         1 ACP         0.0672
     35 H5'1        3.0467    0.0218   -2.6379 H         1 ACP         0.0277
     36 H5'2        1.3432    0.2220   -2.1518 H         1 ACP         0.0277
     37 H4'         3.8050   -0.1388   -0.4008 H         1 ACP         0.1249
     38 H3'         1.6784   -1.7629    0.2714 H         1 ACP         0.0564
     39 HO3'        2.2232   -1.2979    2.3953 H         1 ACP         0.4511
     40 H2'        -0.0011    0.0027    0.0003 H         1 ACP         0.0716
     41 HO2'       -0.1563   -0.9855    2.0596 H         1 ACP         0.4454
     42 H1'         1.7826    1.9024    1.6451 H         1 ACP         0.1310
     43 H8          1.3437    3.1645   -1.6367 H         1 ACP         0.3565
     44 HN61       -2.6210    5.7042   -1.2748 H         1 ACP         0.4414
     45 HN62       -3.9356    5.8187   -0.1356 H         1 ACP         0.4414
     46 H2         -2.8752    2.7532    3.1495 H         1 ACP         0.0676
     47 H47        -0.6372    4.7004   -1.8900 H         1 ACP         0.5052
@<TRIPOS>BOND
     1    1    2 2
     2    1    3 1
     3    1    4 1
     4    1    8 1
     5    4   32 1
     6    5    6 2
     7    5    7 1
     8    5    8 1
     9    5   12 1
    10    8   33 1
    11    8   34 1
    12    9   10 2
    13    9   11 1
    14    9   12 1
    15    9   13 1
    16   13   14 1
    17   14   15 1
    18   14   35 1
    19   14   36 1
    20   15   16 1
    21   15   17 1
    22   15   37 1
    23   16   21 1
    24   17   18 1
    25   17   19 1
    26   17   38 1
    27   18   39 1
    28   19   20 1
    29   19   21 1
    30   19   40 1
    31   20   41 1
    32   21   22 1
    33   21   42 1
    34   22   23 ar
    35   22   31 ar
    36   23   24 ar
    37   23   43 1
    38   24   25 ar
    39   24   47 1
    40   25   26 ar
    41   25   31 ar
    42   26   27 1
    43   26   28 ar
    44   27   44 1
    45   27   45 1
    46   28   29 ar
    47   29   30 ar
    48   29   46 1
    49   30   31 ar
@<TRIPOS>SUBSTRUCTURE
     1 ACP         1 GROUP 0 A     ****
@<TRIPOS>MOLECULE
[[5-(6-amino-7,8-dihydropurin-8-ylium-9-yl)-3,4-dihydroxy-tetrahydrofuran-2-yl]methoxy-oxido-phosphoryl]oxy-[[hydroxy(oxido)phosphoryl]methyl]phosphinate
   47    49     1     0     0
SMALL
USER_CHARGES

@<TRIPOS>ATOM
      1 PG          3.8246   -4.7482   -1.6567 P.3       1 ACP         1.3755
      2 O1G         3.4368   -3.4182   -1.0540 O.co2     1 ACP        -0.8970
      3 O2G         4.3663   -5.8830   -0.8182 O.co2     1 ACP        -0.8970
      4 O3G         2.6027   -5.2989   -2.5860 O.3       1 ACP        -0.7959
      5 PB          4.6852   -3.3686   -4.4730 P.3       1 ACP         1.5194
      6 O1B         3.5263   -4.0061   -5.2032 O.co2     1 ACP        -0.8958
      7 O2B         6.0021   -3.0758   -5.1545 O.co2     1 ACP        -0.8958
      8 C3B         5.0522   -4.4177   -2.9969 C.3       1 ACP        -0.5612
      9 PA          3.4821   -0.6660   -4.2377 P.3       1 ACP         1.6019
     10 O1A         2.1119   -1.0079   -4.7812 O.co2     1 ACP        -0.9040
     11 O2A         4.4908    0.0668   -5.0956 O.co2     1 ACP        -0.9040
     12 O3A         4.1739   -2.0373   -3.6828 O.3       1 ACP        -0.8156
     13 O5'         3.2883    0.1336   -2.8242 O.3       1 ACP        -0.5465
     14 C5'         2.2816   -0.2918   -1.9206 C.3       1 ACP         0.2108
     15 C4'         2.7248    0.0226   -0.4980 C.3       1 ACP         0.0552
     16 O4'         2.4697    1.4219   -0.2462 O.3       1 ACP        -0.3428
     17 C3'         1.9404   -0.7419    0.5596 C.3       1 ACP         0.0750
     18 O3'         2.7418   -0.8086    1.7389 O.3       1 ACP        -0.6066
     19 C2'         0.7477    0.1630    0.7858 C.3       1 ACP         0.1185
     20 O2'         0.1373   -0.0577    2.0407 O.3       1 ACP        -0.5858
     21 C1'         1.3733    1.5427    0.6747 C.3       1 ACP         0.3826
     22 N9          0.4520    2.5240    0.1767 N.pl3     1 ACP        -0.5729
     23 C8         -0.8602    2.5861    0.3496 C.ar      1 ACP         0.3288
     24 N7         -1.4308    3.6326   -0.2443 N.pl3     1 ACP        -0.5338
     25 C5         -0.4080    4.2856   -0.8394 C.ar      1 ACP        -0.2581
     26 C6         -0.3432    5.4196   -1.5943 C.ar      1 ACP         0.7413
     27 N6         -1.5276    6.1333   -1.8702 N.pl3     1 ACP        -0.9512
     28 N1          0.8395    5.8603   -2.0764 N.ar      1 ACP        -0.7699
     29 C2          1.9319    5.1095   -1.7617 C.ar      1 ACP         0.6898
     30 N3          1.9773    3.9761   -1.0249 N.ar      1 ACP        -0.6800
     31 C4          0.7724    3.6031   -0.5836 C.ar      1 ACP         0.6129
     32 HOG3        1.7307   -5.4582   -2.1660 H         1 ACP         0.4199
     33 H3B1        5.3543   -5.3988   -3.3801 H         1 ACP         0.0672
     34 H3B2        5.9287   -3.9702   -2.5153 H         1 ACP         0.0672
     35 H5'1        1.3500    0.2325   -2.1560 H         1 ACP         0.0277
     36 H5'2        2.1267   -1.3683   -2.0444 H         1 ACP         0.0277
     37 H4'         3.8050   -0.1388   -0.4008 H         1 ACP         0.1249
     38 H3'         1.6784   -1.7629    0.2714 H         1 ACP         0.0564
     39 HO3'        3.5554   -1.2733    1.4914 H         1 ACP         0.4511
     40 H2'        -0.0011    0.0027    0.0003 H         1 ACP         0.0716
     41 HO2'       -0.1563   -0.9855    2.0596 H         1 ACP         0.4454
     42 H1'         1.7826    1.9024    1.6451 H         1 ACP         0.1310
     43 H8         -1.4217    1.8638    0.9164 H         1 ACP         0.3565
     44 HN61       -2.4023    5.7711   -1.5477 H         1 ACP         0.4414
     45 HN62       -1.4857    6.9379   -2.4627 H         1 ACP         0.4414
     46 H2          2.8789    5.4660   -2.1503 H         1 ACP         0.0676
     47 H47        -2.4129    3.8706   -0.2402 H         1 ACP         0.5052
@<TRIPOS>BOND
     1    1    2 2
     2    1    3 1
     3    1    4 1
     4    1    8 1
     5    4   32 1
     6    5    6 2
     7    5    7 1
     8    5    8 1
     9    5   12 1
    10    8   33 1
    11    8   34 1
    12    9   10 2
    13    9   11 1
    14    9   12 1
    15    9   13 1
    16   13   14 1
    17   14   15 1
    18   14   35 1
    19   14   36 1
    20   15   16 1
    21   15   17 1
    22   15   37 1
    23   16   21 1
    24   17   18 1
    25   17   19 1
    26   17   38 1
    27   18   39 1
    28   19   20 1
    29   19   21 1
    30   19   40 1
    31   20   41 1
    32   21   22 1
    33   21   42 1
    34   22   23 ar
    35   22   31 ar
    36   23   24 ar
    37   23   43 1
    38   24   25 ar
    39   24   47 1
    40   25   26 ar
    41   25   31 ar
    42   26   27 1
    43   26   28 ar
    44   27   44 1
    45   27   45 1
    46   28   29 ar
    47   29   30 ar
    48   29   46 1
    49   30   31 ar
@<TRIPOS>SUBSTRUCTURE
     1 ACP         1 GROUP 0 A     ****
@<TRIPOS>MOLECULE
[[5-(6-amino-7,8-dihydropurin-8-ylium-9-yl)-3,4-dihydroxy-tetrahydrofuran-2-yl]methoxy-oxido-phosphoryl]oxy-[[hydroxy(oxido)phosphoryl]methyl]phosphinate
   47    49     1     0     0
SMALL
USER_CHARGES

@<TRIPOS>ATOM
      1 PG          0.0352   -0.3805   -6.7964 P.3       1 ACP         1.3755
      2 O1G         0.6145    0.4537   -7.9151 O.co2     1 ACP        -0.8970
      3 O2G        -0.1919    0.1796   -5.4111 O.co2     1 ACP        -0.8970
      4 O3G        -1.3287   -1.1094   -7.3144 O.3       1 ACP        -0.7959
      5 PB          2.8931   -1.8182   -6.2129 P.3       1 ACP         1.5194
      6 O1B         3.5735   -1.0368   -7.3125 O.co2     1 ACP        -0.8958
      7 O2B         3.3217   -3.2181   -5.8373 O.co2     1 ACP        -0.8958
      8 C3B         1.0913   -1.8853   -6.6168 C.3       1 ACP        -0.5612
      9 PA          3.9534   -0.2075   -3.9573 P.3       1 ACP         1.6019
     10 O1A         4.6225    0.8729   -4.7788 O.co2     1 ACP        -0.9040
     11 O2A         4.7732   -1.3027   -3.3100 O.co2     1 ACP        -0.9040
     12 O3A         2.7896   -0.9020   -4.8683 O.3       1 ACP        -0.8156
     13 O5'         3.0198    0.5138   -2.8245 O.3       1 ACP        -0.5465
     14 C5'         2.2816   -0.2918   -1.9206 C.3       1 ACP         0.2108
     15 C4'         2.7248    0.0226   -0.4980 C.3       1 ACP         0.0552
     16 O4'         2.4697    1.4219   -0.2462 O.3       1 ACP        -0.3428
     17 C3'         1.9404   -0.7419    0.5596 C.3       1 ACP         0.0750
     18 O3'         2.7418   -0.8086    1.7389 O.3       1 ACP        -0.6066
     19 C2'         0.7477    0.1630    0.7858 C.3       1 ACP         0.1185
     20 O2'         0.1373   -0.0577    2.0407 O.3       1 ACP        -0.5858
     21 C1'         1.3733    1.5427    0.6747 C.3       1 ACP         0.3826
     22 N9          0.4520    2.5240    0.1767 N.pl3     1 ACP        -0.5729
     23 C8         -0.8602    2.5861    0.3496 C.ar      1 ACP         0.3288
     24 N7         -1.4308    3.6326   -0.2443 N.pl3     1 ACP        -0.5338
     25 C5         -0.4080    4.2856   -0.8394 C.ar      1 ACP        -0.2581
     26 C6         -0.3432    5.4196   -1.5943 C.ar      1 ACP         0.7413
     27 N6         -1.5276    6.1333   -1.8702 N.pl3     1 ACP        -0.9512
     28 N1          0.8395    5.8603   -2.0764 N.ar      1 ACP        -0.7699
     29 C2          1.9319    5.1095   -1.7617 C.ar      1 ACP         0.6898
     30 N3          1.9773    3.9761   -1.0249 N.ar      1 ACP        -0.6800
     31 C4          0.7724    3.6031   -0.5836 C.ar      1 ACP         0.6129
     32 HOG3       -2.0724   -0.5474   -7.6198 H         1 ACP         0.4199
     33 H3B1        1.0048   -2.4311   -7.5629 H         1 ACP         0.0672
     34 H3B2        0.6275   -2.5024   -5.8392 H         1 ACP         0.0672
     35 H5'1        1.2153   -0.0781   -2.0454 H         1 ACP         0.0277
     36 H5'2        2.4645   -1.3454   -2.1547 H         1 ACP         0.0277
     37 H4'         3.8050   -0.1388   -0.4008 H         1 ACP         0.1249
     38 H3'         1.6784   -1.7629    0.2714 H         1 ACP         0.0564
     39 HO3'        2.2232   -1.2979    2.3953 H         1 ACP         0.4511
     40 H2'        -0.0011    0.0027    0.0003 H         1 ACP         0.0716
     41 HO2'       -0.1563   -0.9855    2.0596 H         1 ACP         0.4454
     42 H1'         1.7826    1.9024    1.6451 H         1 ACP         0.1310
     43 H8         -1.4217    1.8638    0.9164 H         1 ACP         0.3565
     44 HN61       -2.4023    5.7711   -1.5477 H         1 ACP         0.4414
     45 HN62       -1.4857    6.9379   -2.4627 H         1 ACP         0.4414
     46 H2          2.8789    5.4660   -2.1503 H         1 ACP         0.0676
     47 H47        -2.4129    3.8706   -0.2402 H         1 ACP         0.5052
@<TRIPOS>BOND
     1    1    2 2
     2    1    3 1
     3    1    4 1
     4    1    8 1
     5    4   32 1
     6    5    6 2
     7    5    7 1
     8    5    8 1
     9    5   12 1
    10    8   33 1
    11    8   34 1
    12    9   10 2
    13    9   11 1
    14    9   12 1
    15    9   13 1
    16   13   14 1
    17   14   15 1
    18   14   35 1
    19   14   36 1
    20   15   16 1
    21   15   17 1
    22   15   37 1
    23   16   21 1
    24   17   18 1
    25   17   19 1
    26   17   38 1
    27   18   39 1
    28   19   20 1
    29   19   21 1
    30   19   40 1
    31   20   41 1
    32   21   22 1
    33   21   42 1
    34   22   23 ar
    35   22   31 ar
    36   23   24 ar
    37   23   43 1
    38   24   25 ar
    39   24   47 1
    40   25   26 ar
    41   25   31 ar
    42   26   27 1
    43   26   28 ar
    44   27   44 1
    45   27   45 1
    46   28   29 ar
    47   29   30 ar
    48   29   46 1
    49   30   31 ar
@<TRIPOS>SUBSTRUCTURE
     1 ACP         1 GROUP 0 A     ****
@<TRIPOS>MOLECULE
[[5-(6-amino-7,8-dihydropurin-8-ylium-9-yl)-3,4-dihydroxy-tetrahydrofuran-2-yl]methoxy-oxido-phosphoryl]oxy-[[hydroxy(oxido)phosphoryl]methyl]phosphinate
   47    49     1     0     0
SMALL
USER_CHARGES

@<TRIPOS>ATOM
      1 PG         -2.4531   -8.2333    3.0477 P.3       1 ACP         1.3755
      2 O1G        -1.8249   -8.9415    1.8701 O.co2     1 ACP        -0.8970
      3 O2G        -2.8704   -6.7821    2.9833 O.co2     1 ACP        -0.8970
      4 O3G        -3.6921   -9.1266    3.6192 O.3       1 ACP        -0.7959
      5 PB          0.4303   -7.7856    4.4833 P.3       1 ACP         1.5194
      6 O1B         1.1608   -8.4801    3.3577 O.co2     1 ACP        -0.8958
      7 O2B         0.9251   -7.8288    5.9107 O.co2     1 ACP        -0.8958
      8 C3B        -1.3071   -8.4146    4.4851 C.3       1 ACP        -0.5612
      9 PA          1.1132   -5.0167    3.6625 P.3       1 ACP         1.6019
     10 O1A         1.7792   -5.3555    2.3467 O.co2     1 ACP        -0.9040
     11 O2A         1.9427   -4.6574    4.8763 O.co2     1 ACP        -0.9040
     12 O3A         0.1118   -6.2424    4.0646 O.3       1 ACP        -0.8156
     13 O5'         0.0099   -3.8403    3.3910 O.3       1 ACP        -0.5465
     14 C5'        -0.7840   -3.8935    2.2172 C.3       1 ACP         0.2108
     15 C4'        -0.0724   -3.1466    1.1027 C.3       1 ACP         0.0552
     16 O4'        -0.8674   -3.1929   -0.0945 O.3       1 ACP        -0.3428
     17 C3'         0.1338   -1.6715    1.4027 C.3       1 ACP         0.0750
     18 O3'         1.2893   -1.4445    2.1808 O.3       1 ACP        -0.6066
     19 C2'         0.2158   -1.0724    0.0128 C.3       1 ACP         0.1185
     20 O2'         1.5141   -1.2448   -0.5513 O.3       1 ACP        -0.5858
     21 C1'        -0.7897   -1.9176   -0.7583 C.3       1 ACP         0.3826
     22 N9         -2.1040   -1.3333   -0.7704 N.pl3     1 ACP        -0.5729
     23 C8         -3.0822   -1.4850    0.1102 C.ar      1 ACP         0.3288
     24 N7         -4.1844   -0.7999   -0.1888 N.pl3     1 ACP        -0.5338
     25 C5         -3.8875   -0.1651   -1.3445 C.ar      1 ACP        -0.2581
     26 C6         -4.5941    0.6799   -2.1486 C.ar      1 ACP         0.7413
     27 N6         -5.9138    1.0274   -1.7939 N.pl3     1 ACP        -0.9512
     28 N1         -4.0421    1.1824   -3.2748 N.ar      1 ACP        -0.7699
     29 C2         -2.7637    0.7937   -3.5405 C.ar      1 ACP         0.6898
     30 N3         -1.9788   -0.0343   -2.8139 N.ar      1 ACP        -0.6800
     31 C4         -2.5915   -0.4902   -1.7174 C.ar      1 ACP         0.6129
     32 HOG3       -4.4408   -9.3269    3.0179 H         1 ACP         0.4199
     33 H3B1       -1.2487   -9.4888    4.6927 H         1 ACP         0.0672
     34 H3B2       -1.8013   -7.9420    5.3411 H         1 ACP         0.0672
     35 H5'1       -0.9358   -4.9414    1.9395 H         1 ACP         0.0277
     36 H5'2       -1.7558   -3.4349    2.4258 H         1 ACP         0.0277
     37 H4'         0.8886   -3.6447    0.8779 H         1 ACP         0.1249
     38 H3'        -0.7373   -1.2359    1.9870 H         1 ACP         0.0564
     39 HO3'        1.3408   -0.4870    2.3219 H         1 ACP         0.4511
     40 H2'        -0.0384   -0.0310    0.0096 H         1 ACP         0.0716
     41 HO2'        2.1463   -0.7958    0.0370 H         1 ACP         0.4454
     42 H1'        -0.4769   -2.1002   -1.8093 H         1 ACP         0.1310
     43 H8         -3.0031   -2.1011    0.9891 H         1 ACP         0.3565
     44 HN61       -6.3271    0.6117   -0.9836 H         1 ACP         0.4414
     45 HN62       -6.4471    1.6092   -2.4083 H         1 ACP         0.4414
     46 H2         -2.3243    1.1986   -4.4449 H         1 ACP         0.0676
     47 H47        -5.0436   -0.7722    0.3425 H         1 ACP         0.5052
@<TRIPOS>BOND
     1    1    2 2
     2    1    3 1
     3    1    4 1
     4    1    8 1
     5    4   32 1
     6    5    6 2
     7    5    7 1
     8    5    8 1
     9    5   12 1
    10    8   33 1
    11    8   34 1
    12    9   10 2
    13    9   11 1
    14    9   12 1
    15    9   13 1
    16   13   14 1
    17   14   15 1
    18   14   35 1
    19   14   36 1
    20   15   16 1
    21   15   17 1
    22   15   37 1
    23   16   21 1
    24   17   18 1
    25   17   19 1
    26   17   38 1
    27   18   39 1
    28   19   20 1
    29   19   21 1
    30   19   40 1
    31   20   41 1
    32   21   22 1
    33   21   42 1
    34   22   23 ar
    35   22   31 ar
    36   23   24 ar
    37   23   43 1
    38   24   25 ar
    39   24   47 1
    40   25   26 ar
    41   25   31 ar
    42   26   27 1
    43   26   28 ar
    44   27   44 1
    45   27   45 1
    46   28   29 ar
    47   29   30 ar
    48   29   46 1
    49   30   31 ar
@<TRIPOS>SUBSTRUCTURE
     1 ACP         1 GROUP 0 A     ****
@<TRIPOS>MOLECULE
[[5-(6-amino-7,8-dihydropurin-8-ylium-9-yl)-3,4-dihydroxy-tetrahydrofuran-2-yl]methoxy-oxido-phosphoryl]oxy-[[hydroxy(oxido)phosphoryl]methyl]phosphinate
   47    49     1     0     0
SMALL
USER_CHARGES

@<TRIPOS>ATOM
      1 PG         -5.3517   -6.6104    2.9796 P.3       1 ACP         1.3755
      2 O1G        -6.7464   -6.0292    2.9801 O.co2     1 ACP        -0.8970
      3 O2G        -5.0870   -8.0637    2.6602 O.co2     1 ACP        -0.8970
      4 O3G        -4.3738   -5.6714    2.0730 O.3       1 ACP        -0.7959
      5 PB         -2.8922   -6.7872    5.0997 P.3       1 ACP         1.5194
      6 O1B        -2.8377   -8.2935    4.9954 O.co2     1 ACP        -0.8958
      7 O2B        -2.5307   -6.0554    6.3717 O.co2     1 ACP        -0.8958
      8 C3B        -4.6009   -6.2628    4.6311 C.3       1 ACP        -0.5612
      9 PA         -0.5394   -6.2504    3.3727 P.3       1 ACP         1.6019
     10 O1A        -0.2967   -7.6723    2.9158 O.co2     1 ACP        -0.9040
     11 O2A         0.3368   -5.6217    4.4346 O.co2     1 ACP        -0.9040
     12 O3A        -2.0977   -6.1184    3.8429 O.3       1 ACP        -0.8156
     13 O5'        -0.5697   -5.2855    2.0524 O.3       1 ACP        -0.5465
     14 C5'        -0.7840   -3.8935    2.2172 C.3       1 ACP         0.2108
     15 C4'        -0.0724   -3.1466    1.1027 C.3       1 ACP         0.0552
     16 O4'        -0.8674   -3.1929   -0.0945 O.3       1 ACP        -0.3428
     17 C3'         0.1338   -1.6715    1.4027 C.3       1 ACP         0.0750
     18 O3'         1.2893   -1.4445    2.1808 O.3       1 ACP        -0.6066
     19 C2'         0.2158   -1.0724    0.0128 C.3       1 ACP         0.1185
     20 O2'         1.5141   -1.2448   -0.5513 O.3       1 ACP        -0.5858
     21 C1'        -0.7897   -1.9176   -0.7583 C.3       1 ACP         0.3826
     22 N9         -2.1040   -1.3333   -0.7704 N.pl3     1 ACP        -0.5729
     23 C8         -3.2304   -1.8262   -0.2767 C.ar      1 ACP         0.3288
     24 N7         -4.2847   -1.0309   -0.4481 N.pl3     1 ACP        -0.5338
     25 C5         -3.7951    0.0479   -1.0985 C.ar      1 ACP        -0.2581
     26 C6         -4.3691    1.1983   -1.5536 C.ar      1 ACP         0.7413
     27 N6         -5.7501    1.4047   -1.3573 N.pl3     1 ACP        -0.9512
     28 N1         -3.6289    2.1345   -2.1869 N.ar      1 ACP        -0.7699
     29 C2         -2.3041    1.8525   -2.3333 C.ar      1 ACP         0.6898
     30 N3         -1.6387    0.7492   -1.9218 N.ar      1 ACP        -0.6800
     31 C4         -2.4348   -0.1293   -1.3053 C.ar      1 ACP         0.6129
     32 HOG3       -4.5936   -5.5449    1.1255 H         1 ACP         0.4199
     33 H3B1       -5.2763   -6.7069    5.3708 H         1 ACP         0.0672
     34 H3B2       -4.6344   -5.1763    4.7680 H         1 ACP         0.0672
     35 H5'1       -1.8599   -3.6946    2.1849 H         1 ACP         0.0277
     36 H5'2       -0.3934   -3.5881    3.1930 H         1 ACP         0.0277
     37 H4'         0.8886   -3.6447    0.8779 H         1 ACP         0.1249
     38 H3'        -0.7373   -1.2359    1.9870 H         1 ACP         0.0564
     39 HO3'        1.3408   -0.4870    2.3219 H         1 ACP         0.4511
     40 H2'        -0.0384   -0.0310    0.0096 H         1 ACP         0.0716
     41 HO2'        2.1463   -0.7958    0.0370 H         1 ACP         0.4454
     42 H1'        -0.4769   -2.1002   -1.8093 H         1 ACP         0.1310
     43 H8         -3.2974   -2.7789    0.2194 H         1 ACP         0.3565
     44 HN61       -6.1609    2.2686   -1.6490 H         1 ACP         0.4414
     45 HN62       -6.2772    0.7257   -0.8460 H         1 ACP         0.4414
     46 H2         -1.7135    2.6057   -2.8421 H         1 ACP         0.0676
     47 H47        -5.2337   -1.2102   -0.1507 H         1 ACP         0.5052
@<TRIPOS>BOND
     1    1    2 2
     2    1    3 1
     3    1    4 1
     4    1    8 1
     5    4   32 1
     6    5    6 2
     7    5    7 1
     8    5    8 1
     9    5   12 1
    10    8   33 1
    11    8   34 1
    12    9   10 2
    13    9   11 1
    14    9   12 1
    15    9   13 1
    16   13   14 1
    17   14   15 1
    18   14   35 1
    19   14   36 1
    20   15   16 1
    21   15   17 1
    22   15   37 1
    23   16   21 1
    24   17   18 1
    25   17   19 1
    26   17   38 1
    27   18   39 1
    28   19   20 1
    29   19   21 1
    30   19   40 1
    31   20   41 1
    32   21   22 1
    33   21   42 1
    34   22   23 ar
    35   22   31 ar
    36   23   24 ar
    37   23   43 1
    38   24   25 ar
    39   24   47 1
    40   25   26 ar
    41   25   31 ar
    42   26   27 1
    43   26   28 ar
    44   27   44 1
    45   27   45 1
    46   28   29 ar
    47   29   30 ar
    48   29   46 1
    49   30   31 ar
@<TRIPOS>SUBSTRUCTURE
     1 ACP         1 GROUP 0 A     ****
@<TRIPOS>MOLECULE
[[5-(6-amino-7,8-dihydropurin-8-ylium-9-yl)-3,4-dihydroxy-tetrahydrofuran-2-yl]methoxy-oxido-phosphoryl]oxy-[[hydroxy(oxido)phosphoryl]methyl]phosphinate
   47    49     1     0     0
SMALL
USER_CHARGES

@<TRIPOS>ATOM
      1 PG         -2.3103   -0.4650   -3.0136 P.3       1 ACP         1.3755
      2 O1G        -2.2859    0.4467   -4.2182 O.co2     1 ACP        -0.8970
      3 O2G        -1.3625   -0.2848   -1.8502 O.co2     1 ACP        -0.8970
      4 O3G        -3.8373   -0.5815   -2.4530 O.3       1 ACP        -0.7959
      5 PB         -0.6408   -2.7814   -4.5701 P.3       1 ACP         1.5194
      6 O1B        -0.5592   -1.9529   -5.8309 O.co2     1 ACP        -0.8958
      7 O2B        -0.6954   -4.2915   -4.6021 O.co2     1 ACP        -0.8958
      8 C3B        -2.1151   -2.1986   -3.6208 C.3       1 ACP        -0.5612
      9 PA          2.1362   -2.2698   -3.6575 P.3       1 ACP         1.6019
     10 O1A         2.5073   -1.2450   -4.7072 O.co2     1 ACP        -0.9040
     11 O2A         2.6360   -3.6946   -3.7605 O.co2     1 ACP        -0.9040
     12 O3A         0.5093   -2.3009   -3.5192 O.3       1 ACP        -0.8156
     13 O5'         2.5237   -1.6631   -2.1889 O.3       1 ACP        -0.5465
     14 C5'         2.2816   -0.2918   -1.9206 C.3       1 ACP         0.2108
     15 C4'         2.7248    0.0226   -0.4980 C.3       1 ACP         0.0552
     16 O4'         2.4697    1.4219   -0.2462 O.3       1 ACP        -0.3428
     17 C3'         1.9404   -0.7419    0.5596 C.3       1 ACP         0.0750
     18 O3'         2.7418   -0.8086    1.7389 O.3       1 ACP        -0.6066
     19 C2'         0.7477    0.1630    0.7858 C.3       1 ACP         0.1185
     20 O2'         0.1373   -0.0577    2.0407 O.3       1 ACP        -0.5858
     21 C1'         1.3733    1.5427    0.6747 C.3       1 ACP         0.3826
     22 N9          0.4520    2.5240    0.1767 N.pl3     1 ACP        -0.5729
     23 C8         -0.3477    3.3274    0.8626 C.ar      1 ACP         0.3288
     24 N7         -1.0836    4.1323    0.0983 N.pl3     1 ACP        -0.5338
     25 C5         -0.7273    3.8194   -1.1674 C.ar      1 ACP        -0.2581
     26 C6         -1.1208    4.2877   -2.3863 C.ar      1 ACP         0.7413
     27 N6         -2.0932    5.3066   -2.4528 N.pl3     1 ACP        -0.9512
     28 N1         -0.5892    3.7853   -3.5223 N.ar      1 ACP        -0.7699
     29 C2          0.3427    2.8040   -3.3648 C.ar      1 ACP         0.6898
     30 N3          0.8012    2.2709   -2.2093 N.ar      1 ACP        -0.6800
     31 C4          0.2307    2.8167   -1.1312 C.ar      1 ACP         0.6129
     32 HOG3       -4.2910    0.2366   -2.1580 H         1 ACP         0.4199
     33 H3B1       -2.9893   -2.3998   -4.2498 H         1 ACP         0.0672
     34 H3B2       -2.1877   -2.8484   -2.7417 H         1 ACP         0.0672
     35 H5'1        2.8429    0.3140   -2.6391 H         1 ACP         0.0277
     36 H5'2        1.2125   -0.0906   -2.0420 H         1 ACP         0.0277
     37 H4'         3.8050   -0.1388   -0.4008 H         1 ACP         0.1249
     38 H3'         1.6784   -1.7629    0.2714 H         1 ACP         0.0564
     39 HO3'        2.2232   -1.2979    2.3953 H         1 ACP         0.4511
     40 H2'        -0.0011    0.0027    0.0003 H         1 ACP         0.0716
     41 HO2'       -0.6141    0.5574    2.1082 H         1 ACP         0.4454
     42 H1'         1.7826    1.9024    1.6451 H         1 ACP         0.1310
     43 H8         -0.4040    3.3373    1.9373 H         1 ACP         0.3565
     44 HN61       -2.5133    5.6366   -1.6073 H         1 ACP         0.4414
     45 HN62       -2.4153    5.6161   -3.3477 H         1 ACP         0.4414
     46 H2          0.7668    2.4032   -4.2782 H         1 ACP         0.0676
     47 H47        -1.7549    4.8194    0.4122 H         1 ACP         0.5052
@<TRIPOS>BOND
     1    1    2 2
     2    1    3 1
     3    1    4 1
     4    1    8 1
     5    4   32 1
     6    5    6 2
     7    5    7 1
     8    5    8 1
     9    5   12 1
    10    8   33 1
    11    8   34 1
    12    9   10 2
    13    9   11 1
    14    9   12 1
    15    9   13 1
    16   13   14 1
    17   14   15 1
    18   14   35 1
    19   14   36 1
    20   15   16 1
    21   15   17 1
    22   15   37 1
    23   16   21 1
    24   17   18 1
    25   17   19 1
    26   17   38 1
    27   18   39 1
    28   19   20 1
    29   19   21 1
    30   19   40 1
    31   20   41 1
    32   21   22 1
    33   21   42 1
    34   22   23 ar
    35   22   31 ar
    36   23   24 ar
    37   23   43 1
    38   24   25 ar
    39   24   47 1
    40   25   26 ar
    41   25   31 ar
    42   26   27 1
    43   26   28 ar
    44   27   44 1
    45   27   45 1
    46   28   29 ar
    47   29   30 ar
    48   29   46 1
    49   30   31 ar
@<TRIPOS>SUBSTRUCTURE
     1 ACP         1 GROUP 0 A     ****
@<TRIPOS>MOLECULE
[[5-(6-amino-7,8-dihydropurin-8-ylium-9-yl)-3,4-dihydroxy-tetrahydrofuran-2-yl]methoxy-oxido-phosphoryl]oxy-[[hydroxy(oxido)phosphoryl]methyl]phosphinate
   47    49     1     0     0
SMALL
USER_CHARGES

@<TRIPOS>ATOM
      1 PG         -0.4854   -2.2007   -5.2387 P.3       1 ACP         1.3755
      2 O1G        -0.6725   -3.5485   -5.8954 O.co2     1 ACP        -0.8970
      3 O2G        -1.6216   -1.4753   -4.5552 O.co2     1 ACP        -0.8970
      4 O3G         0.7985   -2.2607   -4.2348 O.3       1 ACP        -0.7959
      5 PB          0.6188    0.7158   -6.1607 P.3       1 ACP         1.5194
      6 O1B        -0.6637    1.3955   -5.7413 O.co2     1 ACP        -0.8958
      7 O2B         1.4562    1.2194   -7.3137 O.co2     1 ACP        -0.8958
      8 C3B         0.2183   -1.0548   -6.5052 C.3       1 ACP        -0.5612
      9 PA          2.2208    1.5499   -3.8060 P.3       1 ACP         1.6019
     10 O1A         1.0984    2.1840   -3.0136 O.co2     1 ACP        -0.9040
     11 O2A         3.2201    2.4089   -4.5502 O.co2     1 ACP        -0.9040
     12 O3A         1.5710    0.4830   -4.8579 O.3       1 ACP        -0.8156
     13 O5'         3.0198    0.5138   -2.8245 O.3       1 ACP        -0.5465
     14 C5'         2.2816   -0.2918   -1.9206 C.3       1 ACP         0.2108
     15 C4'         2.7248    0.0226   -0.4980 C.3       1 ACP         0.0552
     16 O4'         2.4697    1.4219   -0.2462 O.3       1 ACP        -0.3428
     17 C3'         1.9404   -0.7419    0.5596 C.3       1 ACP         0.0750
     18 O3'         2.7418   -0.8086    1.7389 O.3       1 ACP        -0.6066
     19 C2'         0.7477    0.1630    0.7858 C.3       1 ACP         0.1185
     20 O2'         0.1373   -0.0577    2.0407 O.3       1 ACP        -0.5858
     21 C1'         1.3733    1.5427    0.6747 C.3       1 ACP         0.3826
     22 N9          0.4520    2.5240    0.1767 N.pl3     1 ACP        -0.5729
     23 C8         -0.8252    2.3702   -0.1405 C.ar      1 ACP         0.3288
     24 N7         -1.4086    3.4861   -0.5739 N.pl3     1 ACP        -0.5338
     25 C5         -0.4324    4.4197   -0.5299 C.ar      1 ACP        -0.2581
     26 C6         -0.4006    5.7465   -0.8439 C.ar      1 ACP         0.7413
     27 N6         -1.5714    6.3708   -1.3211 N.pl3     1 ACP        -0.9512
     28 N1          0.7370    6.4615   -0.7020 N.ar      1 ACP        -0.7699
     29 C2          1.8196    5.7785   -0.2355 C.ar      1 ACP         0.6898
     30 N3          1.8948    4.4713    0.1036 N.ar      1 ACP        -0.6800
     31 C4          0.7337    3.8311   -0.0629 C.ar      1 ACP         0.6129
     32 HOG3        0.7824   -2.9018   -3.4926 H         1 ACP         0.4199
     33 H3B1       -0.4890   -1.0565   -7.3420 H         1 ACP         0.0672
     34 H3B2        1.1474   -1.5137   -6.8608 H         1 ACP         0.0672
     35 H5'1        1.2153   -0.0781   -2.0454 H         1 ACP         0.0277
     36 H5'2        2.4645   -1.3454   -2.1547 H         1 ACP         0.0277
     37 H4'         3.8050   -0.1388   -0.4008 H         1 ACP         0.1249
     38 H3'         1.6784   -1.7629    0.2714 H         1 ACP         0.0564
     39 HO3'        2.2232   -1.2979    2.3953 H         1 ACP         0.4511
     40 H2'        -0.0011    0.0027    0.0003 H         1 ACP         0.0716
     41 HO2'       -0.1563   -0.9855    2.0596 H         1 ACP         0.4454
     42 H1'         1.7826    1.9024    1.6451 H         1 ACP         0.1310
     43 H8         -1.3516    1.4351   -0.0582 H         1 ACP         0.3565
     44 HN61       -2.3936    5.8204   -1.4664 H         1 ACP         0.4414
     45 HN62       -1.5348    7.3319   -1.5955 H         1 ACP         0.4414
     46 H2          2.7305    6.3553   -0.1232 H         1 ACP         0.0676
     47 H47        -2.3700    3.5931   -0.8665 H         1 ACP         0.5052
@<TRIPOS>BOND
     1    1    2 2
     2    1    3 1
     3    1    4 1
     4    1    8 1
     5    4   32 1
     6    5    6 2
     7    5    7 1
     8    5    8 1
     9    5   12 1
    10    8   33 1
    11    8   34 1
    12    9   10 2
    13    9   11 1
    14    9   12 1
    15    9   13 1
    16   13   14 1
    17   14   15 1
    18   14   35 1
    19   14   36 1
    20   15   16 1
    21   15   17 1
    22   15   37 1
    23   16   21 1
    24   17   18 1
    25   17   19 1
    26   17   38 1
    27   18   39 1
    28   19   20 1
    29   19   21 1
    30   19   40 1
    31   20   41 1
    32   21   22 1
    33   21   42 1
    34   22   23 ar
    35   22   31 ar
    36   23   24 ar
    37   23   43 1
    38   24   25 ar
    39   24   47 1
    40   25   26 ar
    41   25   31 ar
    42   26   27 1
    43   26   28 ar
    44   27   44 1
    45   27   45 1
    46   28   29 ar
    47   29   30 ar
    48   29   46 1
    49   30   31 ar
@<TRIPOS>SUBSTRUCTURE
     1 ACP         1 GROUP 0 A     ****
@<TRIPOS>MOLECULE
[[5-(6-amino-7,8-dihydropurin-8-ylium-9-yl)-3,4-dihydroxy-tetrahydrofuran-2-yl]methoxy-oxido-phosphoryl]oxy-[[hydroxy(oxido)phosphoryl]methyl]phosphinate
   47    49     1     0     0
SMALL
USER_CHARGES

@<TRIPOS>ATOM
      1 PG          5.1701   -4.0155   -2.2378 P.3       1 ACP         1.3755
      2 O1G         6.1710   -4.7291   -1.3593 O.co2     1 ACP        -0.8970
      3 O2G         3.9993   -4.7333   -2.8689 O.co2     1 ACP        -0.8970
      4 O3G         4.6351   -2.6778   -1.4736 O.3       1 ACP        -0.7959
      5 PB          5.3023   -2.1900   -4.9258 P.3       1 ACP         1.5194
      6 O1B         4.3452   -3.1009   -5.6584 O.co2     1 ACP        -0.8958
      7 O2B         6.3947   -1.4286   -5.6409 O.co2     1 ACP        -0.8958
      8 C3B         6.1089   -3.1897   -3.5975 C.3       1 ACP        -0.5612
      9 PA          3.3324   -0.0529   -4.3266 P.3       1 ACP         1.6019
     10 O1A         2.0985   -0.7700   -4.8296 O.co2     1 ACP        -0.9040
     11 O2A         3.9793    1.0390   -5.1511 O.co2     1 ACP        -0.9040
     12 O3A         4.4675   -1.1702   -3.9660 O.3       1 ACP        -0.8156
     13 O5'         3.0198    0.5138   -2.8245 O.3       1 ACP        -0.5465
     14 C5'         2.2816   -0.2918   -1.9206 C.3       1 ACP         0.2108
     15 C4'         2.7248    0.0226   -0.4980 C.3       1 ACP         0.0552
     16 O4'         2.4697    1.4219   -0.2462 O.3       1 ACP        -0.3428
     17 C3'         1.9404   -0.7419    0.5596 C.3       1 ACP         0.0750
     18 O3'         2.7418   -0.8086    1.7389 O.3       1 ACP        -0.6066
     19 C2'         0.7477    0.1630    0.7858 C.3       1 ACP         0.1185
     20 O2'         0.1373   -0.0577    2.0407 O.3       1 ACP        -0.5858
     21 C1'         1.3733    1.5427    0.6747 C.3       1 ACP         0.3826
     22 N9          0.4520    2.5240    0.1767 N.pl3     1 ACP        -0.5729
     23 C8         -0.3477    3.3274    0.8626 C.ar      1 ACP         0.3288
     24 N7         -1.0836    4.1323    0.0983 N.pl3     1 ACP        -0.5338
     25 C5         -0.7273    3.8194   -1.1674 C.ar      1 ACP        -0.2581
     26 C6         -1.1208    4.2877   -2.3863 C.ar      1 ACP         0.7413
     27 N6         -2.0932    5.3066   -2.4528 N.pl3     1 ACP        -0.9512
     28 N1         -0.5892    3.7853   -3.5223 N.ar      1 ACP        -0.7699
     29 C2          0.3427    2.8040   -3.3648 C.ar      1 ACP         0.6898
     30 N3          0.8012    2.2709   -2.2093 N.ar      1 ACP        -0.6800
     31 C4          0.2307    2.8167   -1.1312 C.ar      1 ACP         0.6129
     32 HOG3        4.1818   -2.7822   -0.6100 H         1 ACP         0.4199
     33 H3B1        6.6709   -3.9828   -4.1032 H         1 ACP         0.0672
     34 H3B2        6.8376   -2.5271   -3.1174 H         1 ACP         0.0672
     35 H5'1        1.2153   -0.0781   -2.0454 H         1 ACP         0.0277
     36 H5'2        2.4645   -1.3454   -2.1547 H         1 ACP         0.0277
     37 H4'         3.8050   -0.1388   -0.4008 H         1 ACP         0.1249
     38 H3'         1.6784   -1.7629    0.2714 H         1 ACP         0.0564
     39 HO3'        2.2232   -1.2979    2.3953 H         1 ACP         0.4511
     40 H2'        -0.0011    0.0027    0.0003 H         1 ACP         0.0716
     41 HO2'       -0.6141    0.5574    2.1082 H         1 ACP         0.4454
     42 H1'         1.7826    1.9024    1.6451 H         1 ACP         0.1310
     43 H8         -0.4040    3.3373    1.9373 H         1 ACP         0.3565
     44 HN61       -2.5133    5.6366   -1.6073 H         1 ACP         0.4414
     45 HN62       -2.4153    5.6161   -3.3477 H         1 ACP         0.4414
     46 H2          0.7668    2.4032   -4.2782 H         1 ACP         0.0676
     47 H47        -1.7549    4.8194    0.4122 H         1 ACP         0.5052
@<TRIPOS>BOND
     1    1    2 2
     2    1    3 1
     3    1    4 1
     4    1    8 1
     5    4   32 1
     6    5    6 2
     7    5    7 1
     8    5    8 1
     9    5   12 1
    10    8   33 1
    11    8   34 1
    12    9   10 2
    13    9   11 1
    14    9   12 1
    15    9   13 1
    16   13   14 1
    17   14   15 1
    18   14   35 1
    19   14   36 1
    20   15   16 1
    21   15   17 1
    22   15   37 1
    23   16   21 1
    24   17   18 1
    25   17   19 1
    26   17   38 1
    27   18   39 1
    28   19   20 1
    29   19   21 1
    30   19   40 1
    31   20   41 1
    32   21   22 1
    33   21   42 1
    34   22   23 ar
    35   22   31 ar
    36   23   24 ar
    37   23   43 1
    38   24   25 ar
    39   24   47 1
    40   25   26 ar
    41   25   31 ar
    42   26   27 1
    43   26   28 ar
    44   27   44 1
    45   27   45 1
    46   28   29 ar
    47   29   30 ar
    48   29   46 1
    49   30   31 ar
@<TRIPOS>SUBSTRUCTURE
     1 ACP         1 GROUP 0 A     ****
@<TRIPOS>MOLECULE
[[5-(6-amino-7,8-dihydropurin-8-ylium-9-yl)-3,4-dihydroxy-tetrahydrofuran-2-yl]methoxy-oxido-phosphoryl]oxy-[[hydroxy(oxido)phosphoryl]methyl]phosphinate
   47    49     1     0     0
SMALL
USER_CHARGES

@<TRIPOS>ATOM
      1 PG         -3.6714   -1.6016    5.1702 P.3       1 ACP         1.3755
      2 O1G        -4.0908   -0.1749    5.4372 O.co2     1 ACP        -0.8970
      3 O2G        -4.6741   -2.6896    4.8619 O.co2     1 ACP        -0.8970
      4 O3G        -2.4930   -1.6180    4.0428 O.3       1 ACP        -0.7959
      5 PB         -1.9337   -3.8596    6.7377 P.3       1 ACP         1.5194
      6 O1B        -3.0721   -4.8515    6.6855 O.co2     1 ACP        -0.8958
      7 O2B        -0.9396   -3.8352    7.8760 O.co2     1 ACP        -0.8958
      8 C3B        -2.6683   -2.1687    6.6140 C.3       1 ACP        -0.5612
      9 PA         -0.3451   -5.0629    4.5388 P.3       1 ACP         1.6019
     10 O1A        -1.3600   -6.0957    4.0994 O.co2     1 ACP        -0.9040
     11 O2A         0.8546   -5.4655    5.3689 O.co2     1 ACP        -0.9040
     12 O3A        -1.1337   -3.8632    5.3171 O.3       1 ACP        -0.8156
     13 O5'         0.1597   -4.2446    3.2157 O.3       1 ACP        -0.5465
     14 C5'        -0.7840   -3.8935    2.2172 C.3       1 ACP         0.2108
     15 C4'        -0.0724   -3.1466    1.1027 C.3       1 ACP         0.0552
     16 O4'        -0.8674   -3.1929   -0.0945 O.3       1 ACP        -0.3428
     17 C3'         0.1338   -1.6715    1.4027 C.3       1 ACP         0.0750
     18 O3'         1.2893   -1.4445    2.1808 O.3       1 ACP        -0.6066
     19 C2'         0.2158   -1.0724    0.0128 C.3       1 ACP         0.1185
     20 O2'         1.5141   -1.2448   -0.5513 O.3       1 ACP        -0.5858
     21 C1'        -0.7897   -1.9176   -0.7583 C.3       1 ACP         0.3826
     22 N9         -2.1040   -1.3333   -0.7704 N.pl3     1 ACP        -0.5729
     23 C8         -3.0822   -1.4850    0.1102 C.ar      1 ACP         0.3288
     24 N7         -4.1844   -0.7999   -0.1888 N.pl3     1 ACP        -0.5338
     25 C5         -3.8875   -0.1651   -1.3445 C.ar      1 ACP        -0.2581
     26 C6         -4.5941    0.6799   -2.1486 C.ar      1 ACP         0.7413
     27 N6         -5.9138    1.0274   -1.7939 N.pl3     1 ACP        -0.9512
     28 N1         -4.0421    1.1824   -3.2748 N.ar      1 ACP        -0.7699
     29 C2         -2.7637    0.7937   -3.5405 C.ar      1 ACP         0.6898
     30 N3         -1.9788   -0.0343   -2.8139 N.ar      1 ACP        -0.6800
     31 C4         -2.5915   -0.4902   -1.7174 C.ar      1 ACP         0.6129
     32 HOG3       -2.6876   -1.2434    3.1573 H         1 ACP         0.4199
     33 H3B1       -3.3068   -2.0418    7.4953 H         1 ACP         0.0672
     34 H3B2       -1.8334   -1.4659    6.7106 H         1 ACP         0.0672
     35 H5'1       -1.2472   -4.8069    1.8308 H         1 ACP         0.0277
     36 H5'2       -1.5578   -3.2634    2.6671 H         1 ACP         0.0277
     37 H4'         0.8886   -3.6447    0.8779 H         1 ACP         0.1249
     38 H3'        -0.7373   -1.2359    1.9870 H         1 ACP         0.0564
     39 HO3'        1.1626   -1.9325    3.0084 H         1 ACP         0.4511
     40 H2'        -0.0384   -0.0310    0.0096 H         1 ACP         0.0716
     41 HO2'        2.1463   -0.7958    0.0370 H         1 ACP         0.4454
     42 H1'        -0.4769   -2.1002   -1.8093 H         1 ACP         0.1310
     43 H8         -3.0031   -2.1011    0.9891 H         1 ACP         0.3565
     44 HN61       -6.3271    0.6117   -0.9836 H         1 ACP         0.4414
     45 HN62       -6.4471    1.6092   -2.4083 H         1 ACP         0.4414
     46 H2         -2.3243    1.1986   -4.4449 H         1 ACP         0.0676
     47 H47        -5.0436   -0.7722    0.3425 H         1 ACP         0.5052
@<TRIPOS>BOND
     1    1    2 2
     2    1    3 1
     3    1    4 1
     4    1    8 1
     5    4   32 1
     6    5    6 2
     7    5    7 1
     8    5    8 1
     9    5   12 1
    10    8   33 1
    11    8   34 1
    12    9   10 2
    13    9   11 1
    14    9   12 1
    15    9   13 1
    16   13   14 1
    17   14   15 1
    18   14   35 1
    19   14   36 1
    20   15   16 1
    21   15   17 1
    22   15   37 1
    23   16   21 1
    24   17   18 1
    25   17   19 1
    26   17   38 1
    27   18   39 1
    28   19   20 1
    29   19   21 1
    30   19   40 1
    31   20   41 1
    32   21   22 1
    33   21   42 1
    34   22   23 ar
    35   22   31 ar
    36   23   24 ar
    37   23   43 1
    38   24   25 ar
    39   24   47 1
    40   25   26 ar
    41   25   31 ar
    42   26   27 1
    43   26   28 ar
    44   27   44 1
    45   27   45 1
    46   28   29 ar
    47   29   30 ar
    48   29   46 1
    49   30   31 ar
@<TRIPOS>SUBSTRUCTURE
     1 ACP         1 GROUP 0 A     ****
@<TRIPOS>MOLECULE
[[5-(6-amino-7,8-dihydropurin-8-ylium-9-yl)-3,4-dihydroxy-tetrahydrofuran-2-yl]methoxy-oxido-phosphoryl]oxy-[[hydroxy(oxido)phosphoryl]methyl]phosphinate
   47    49     1     0     0
SMALL
USER_CHARGES

@<TRIPOS>ATOM
      1 PG         -1.1348    0.1249   -5.3023 P.3       1 ACP         1.3755
      2 O1G        -1.3227    1.1846   -6.3628 O.co2     1 ACP        -0.8970
      3 O2G        -0.4628    0.4206   -3.9812 O.co2     1 ACP        -0.8970
      4 O3G        -2.5564   -0.6261   -5.0289 O.3       1 ACP        -0.7959
      5 PB          0.2277   -2.8244   -5.1602 P.3       1 ACP         1.5194
      6 O1B         0.9491   -3.7307   -6.1302 O.co2     1 ACP        -0.8958
      7 O2B        -0.9972   -3.2746   -4.3977 O.co2     1 ACP        -0.8958
      8 C3B        -0.2306   -1.2872   -6.0773 C.3       1 ACP        -0.5612
      9 PA          2.0054   -2.7672   -2.7847 P.3       1 ACP         1.6019
     10 O1A         2.9308   -3.8905   -3.1989 O.co2     1 ACP        -0.9040
     11 O2A         0.9346   -2.9961   -1.7400 O.co2     1 ACP        -0.9040
     12 O3A         1.2984   -2.1600   -4.1258 O.3       1 ACP        -0.8156
     13 O5'         2.9202   -1.4821   -2.3524 O.3       1 ACP        -0.5465
     14 C5'         2.2816   -0.2918   -1.9206 C.3       1 ACP         0.2108
     15 C4'         2.7248    0.0226   -0.4980 C.3       1 ACP         0.0552
     16 O4'         2.4697    1.4219   -0.2462 O.3       1 ACP        -0.3428
     17 C3'         1.9404   -0.7419    0.5596 C.3       1 ACP         0.0750
     18 O3'         2.7418   -0.8086    1.7389 O.3       1 ACP        -0.6066
     19 C2'         0.7477    0.1630    0.7858 C.3       1 ACP         0.1185
     20 O2'         0.1373   -0.0577    2.0407 O.3       1 ACP        -0.5858
     21 C1'         1.3733    1.5427    0.6747 C.3       1 ACP         0.3826
     22 N9          0.4520    2.5240    0.1767 N.pl3     1 ACP        -0.5729
     23 C8          0.5305    3.2394   -0.9358 C.ar      1 ACP         0.3288
     24 N7         -0.4966    4.0680   -1.1145 N.pl3     1 ACP        -0.5338
     25 C5         -1.2879    3.8664   -0.0375 C.ar      1 ACP        -0.2581
     26 C6         -2.4754    4.4084    0.3577 C.ar      1 ACP         0.7413
     27 N6         -3.0892    5.3882   -0.4495 N.pl3     1 ACP        -0.9512
     28 N1         -3.0632    4.0158    1.5092 N.ar      1 ACP        -0.7699
     29 C2         -2.4008    3.0654    2.2262 C.ar      1 ACP         0.6898
     30 N3         -1.2259    2.4663    1.9260 N.ar      1 ACP        -0.6800
     31 C4         -0.7062    2.9047    0.7757 C.ar      1 ACP         0.6129
     32 HOG3       -3.3162   -0.0901   -4.7166 H         1 ACP         0.4199
     33 H3B1        0.7029   -0.8700   -6.4710 H         1 ACP         0.0672
     34 H3B2       -0.8315   -1.6113   -6.9342 H         1 ACP         0.0672
     35 H5'1        2.5581    0.5235   -2.5966 H         1 ACP         0.0277
     36 H5'2        1.1974   -0.4370   -1.9607 H         1 ACP         0.0277
     37 H4'         3.8050   -0.1388   -0.4008 H         1 ACP         0.1249
     38 H3'         1.6784   -1.7629    0.2714 H         1 ACP         0.0564
     39 HO3'        2.2232   -1.2979    2.3953 H         1 ACP         0.4511
     40 H2'        -0.0011    0.0027    0.0003 H         1 ACP         0.0716
     41 HO2'       -0.1563   -0.9855    2.0596 H         1 ACP         0.4454
     42 H1'         1.7826    1.9024    1.6451 H         1 ACP         0.1310
     43 H8          1.3437    3.1645   -1.6367 H         1 ACP         0.3565
     44 HN61       -2.6210    5.7042   -1.2748 H         1 ACP         0.4414
     45 HN62       -3.9356    5.8187   -0.1356 H         1 ACP         0.4414
     46 H2         -2.8752    2.7532    3.1495 H         1 ACP         0.0676
     47 H47        -0.6372    4.7004   -1.8900 H         1 ACP         0.5052
@<TRIPOS>BOND
     1    1    2 2
     2    1    3 1
     3    1    4 1
     4    1    8 1
     5    4   32 1
     6    5    6 2
     7    5    7 1
     8    5    8 1
     9    5   12 1
    10    8   33 1
    11    8   34 1
    12    9   10 2
    13    9   11 1
    14    9   12 1
    15    9   13 1
    16   13   14 1
    17   14   15 1
    18   14   35 1
    19   14   36 1
    20   15   16 1
    21   15   17 1
    22   15   37 1
    23   16   21 1
    24   17   18 1
    25   17   19 1
    26   17   38 1
    27   18   39 1
    28   19   20 1
    29   19   21 1
    30   19   40 1
    31   20   41 1
    32   21   22 1
    33   21   42 1
    34   22   23 ar
    35   22   31 ar
    36   23   24 ar
    37   23   43 1
    38   24   25 ar
    39   24   47 1
    40   25   26 ar
    41   25   31 ar
    42   26   27 1
    43   26   28 ar
    44   27   44 1
    45   27   45 1
    46   28   29 ar
    47   29   30 ar
    48   29   46 1
    49   30   31 ar
@<TRIPOS>SUBSTRUCTURE
     1 ACP         1 GROUP 0 A     ****
@<TRIPOS>MOLECULE
[[5-(6-amino-7,8-dihydropurin-8-ylium-9-yl)-3,4-dihydroxy-tetrahydrofuran-2-yl]methoxy-oxido-phosphoryl]oxy-[[hydroxy(oxido)phosphoryl]methyl]phosphinate
   47    49     1     0     0
SMALL
USER_CHARGES

@<TRIPOS>ATOM
      1 PG          4.4673   -0.9070   -6.7860 P.3       1 ACP         1.3755
      2 O1G         4.7822   -0.7292   -5.3190 O.co2     1 ACP        -0.8970
      3 O2G         5.1103   -0.0537   -7.8550 O.co2     1 ACP        -0.8970
      4 O3G         4.6207   -2.4806   -7.1862 O.3       1 ACP        -0.7959
      5 PB          1.4292   -1.8769   -6.1501 P.3       1 ACP         1.5194
      6 O1B         1.7224   -3.2845   -6.6140 O.co2     1 ACP        -0.8958
      7 O2B         0.0612   -1.2507   -6.2951 O.co2     1 ACP        -0.8958
      8 C3B         2.6372   -0.7568   -6.9869 C.3       1 ACP        -0.5612
      9 PA          1.5537   -2.4539   -3.2418 P.3       1 ACP         1.6019
     10 O1A         2.0300   -3.8868   -3.3414 O.co2     1 ACP        -0.9040
     11 O2A         0.1072   -2.1427   -2.9238 O.co2     1 ACP        -0.9040
     12 O3A         1.9587   -1.6787   -4.6209 O.3       1 ACP        -0.8156
     13 O5'         2.5237   -1.6631   -2.1889 O.3       1 ACP        -0.5465
     14 C5'         2.2816   -0.2918   -1.9206 C.3       1 ACP         0.2108
     15 C4'         2.7248    0.0226   -0.4980 C.3       1 ACP         0.0552
     16 O4'         2.4697    1.4219   -0.2462 O.3       1 ACP        -0.3428
     17 C3'         1.9404   -0.7419    0.5596 C.3       1 ACP         0.0750
     18 O3'         2.7418   -0.8086    1.7389 O.3       1 ACP        -0.6066
     19 C2'         0.7477    0.1630    0.7858 C.3       1 ACP         0.1185
     20 O2'         0.1373   -0.0577    2.0407 O.3       1 ACP        -0.5858
     21 C1'         1.3733    1.5427    0.6747 C.3       1 ACP         0.3826
     22 N9          0.4520    2.5240    0.1767 N.pl3     1 ACP        -0.5729
     23 C8         -0.8602    2.5861    0.3496 C.ar      1 ACP         0.3288
     24 N7         -1.4308    3.6326   -0.2443 N.pl3     1 ACP        -0.5338
     25 C5         -0.4080    4.2856   -0.8394 C.ar      1 ACP        -0.2581
     26 C6         -0.3432    5.4196   -1.5943 C.ar      1 ACP         0.7413
     27 N6         -1.5276    6.1333   -1.8702 N.pl3     1 ACP        -0.9512
     28 N1          0.8395    5.8603   -2.0764 N.ar      1 ACP        -0.7699
     29 C2          1.9319    5.1095   -1.7617 C.ar      1 ACP         0.6898
     30 N3          1.9773    3.9761   -1.0249 N.ar      1 ACP        -0.6800
     31 C4          0.7724    3.6031   -0.5836 C.ar      1 ACP         0.6129
     32 HOG3        5.4929   -2.9118   -7.0625 H         1 ACP         0.4199
     33 H3B1        2.4426   -0.8373   -8.0622 H         1 ACP         0.0672
     34 H3B2        2.3711    0.2612   -6.6813 H         1 ACP         0.0672
     35 H5'1        2.8429    0.3140   -2.6391 H         1 ACP         0.0277
     36 H5'2        1.2125   -0.0906   -2.0420 H         1 ACP         0.0277
     37 H4'         3.8050   -0.1388   -0.4008 H         1 ACP         0.1249
     38 H3'         1.6784   -1.7629    0.2714 H         1 ACP         0.0564
     39 HO3'        2.2232   -1.2979    2.3953 H         1 ACP         0.4511
     40 H2'        -0.0011    0.0027    0.0003 H         1 ACP         0.0716
     41 HO2'       -0.1563   -0.9855    2.0596 H         1 ACP         0.4454
     42 H1'         1.7826    1.9024    1.6451 H         1 ACP         0.1310
     43 H8         -1.4217    1.8638    0.9164 H         1 ACP         0.3565
     44 HN61       -2.4023    5.7711   -1.5477 H         1 ACP         0.4414
     45 HN62       -1.4857    6.9379   -2.4627 H         1 ACP         0.4414
     46 H2          2.8789    5.4660   -2.1503 H         1 ACP         0.0676
     47 H47        -2.4129    3.8706   -0.2402 H         1 ACP         0.5052
@<TRIPOS>BOND
     1    1    2 2
     2    1    3 1
     3    1    4 1
     4    1    8 1
     5    4   32 1
     6    5    6 2
     7    5    7 1
     8    5    8 1
     9    5   12 1
    10    8   33 1
    11    8   34 1
    12    9   10 2
    13    9   11 1
    14    9   12 1
    15    9   13 1
    16   13   14 1
    17   14   15 1
    18   14   35 1
    19   14   36 1
    20   15   16 1
    21   15   17 1
    22   15   37 1
    23   16   21 1
    24   17   18 1
    25   17   19 1
    26   17   38 1
    27   18   39 1
    28   19   20 1
    29   19   21 1
    30   19   40 1
    31   20   41 1
    32   21   22 1
    33   21   42 1
    34   22   23 ar
    35   22   31 ar
    36   23   24 ar
    37   23   43 1
    38   24   25 ar
    39   24   47 1
    40   25   26 ar
    41   25   31 ar
    42   26   27 1
    43   26   28 ar
    44   27   44 1
    45   27   45 1
    46   28   29 ar
    47   29   30 ar
    48   29   46 1
    49   30   31 ar
@<TRIPOS>SUBSTRUCTURE
     1 ACP         1 GROUP 0 A     ****
@<TRIPOS>MOLECULE
[[5-(6-amino-7,8-dihydropurin-8-ylium-9-yl)-3,4-dihydroxy-tetrahydrofuran-2-yl]methoxy-oxido-phosphoryl]oxy-[[hydroxy(oxido)phosphoryl]methyl]phosphinate
   47    49     1     0     0
SMALL
USER_CHARGES

@<TRIPOS>ATOM
      1 PG         -1.6656   -3.3925    7.4897 P.3       1 ACP         1.3755
      2 O1G        -1.1094   -2.6916    6.2721 O.co2     1 ACP        -0.8970
      3 O2G        -0.8895   -3.4944    8.7825 O.co2     1 ACP        -0.8970
      4 O3G        -3.1638   -2.8289    7.8021 O.3       1 ACP        -0.7959
      5 PB         -3.3687   -5.4817    5.6704 P.3       1 ACP         1.5194
      6 O1B        -4.6825   -4.8769    6.1071 O.co2     1 ACP        -0.8958
      7 O2B        -3.2327   -6.9470    5.3260 O.co2     1 ACP        -0.8958
      8 C3B        -2.1251   -5.1090    6.9852 C.3       1 ACP        -0.5612
      9 PA         -3.2840   -4.1951    2.9975 P.3       1 ACP         1.6019
     10 O1A        -4.4923   -3.3000    3.1669 O.co2     1 ACP        -0.9040
     11 O2A        -3.3723   -5.4616    2.1737 O.co2     1 ACP        -0.9040
     12 O3A        -2.7155   -4.5802    4.4792 O.3       1 ACP        -0.8156
     13 O5'        -2.0403   -3.2809    2.4568 O.3       1 ACP        -0.5465
     14 C5'        -0.7840   -3.8935    2.2172 C.3       1 ACP         0.2108
     15 C4'        -0.0724   -3.1466    1.1027 C.3       1 ACP         0.0552
     16 O4'        -0.8674   -3.1929   -0.0945 O.3       1 ACP        -0.3428
     17 C3'         0.1338   -1.6715    1.4027 C.3       1 ACP         0.0750
     18 O3'         1.2893   -1.4445    2.1808 O.3       1 ACP        -0.6066
     19 C2'         0.2158   -1.0724    0.0128 C.3       1 ACP         0.1185
     20 O2'         1.5141   -1.2448   -0.5513 O.3       1 ACP        -0.5858
     21 C1'        -0.7897   -1.9176   -0.7583 C.3       1 ACP         0.3826
     22 N9         -2.1040   -1.3333   -0.7704 N.pl3     1 ACP        -0.5729
     23 C8         -3.2304   -1.8262   -0.2767 C.ar      1 ACP         0.3288
     24 N7         -4.2847   -1.0309   -0.4481 N.pl3     1 ACP        -0.5338
     25 C5         -3.7951    0.0479   -1.0985 C.ar      1 ACP        -0.2581
     26 C6         -4.3691    1.1983   -1.5536 C.ar      1 ACP         0.7413
     27 N6         -5.7501    1.4047   -1.3573 N.pl3     1 ACP        -0.9512
     28 N1         -3.6289    2.1345   -2.1869 N.ar      1 ACP        -0.7699
     29 C2         -2.3041    1.8525   -2.3333 C.ar      1 ACP         0.6898
     30 N3         -1.6387    0.7492   -1.9218 N.ar      1 ACP        -0.6800
     31 C4         -2.4348   -0.1293   -1.3053 C.ar      1 ACP         0.6129
     32 HOG3       -3.2740   -1.8726    7.9905 H         1 ACP         0.4199
     33 H3B1       -2.4753   -5.6090    7.8951 H         1 ACP         0.0672
     34 H3B2       -1.1975   -5.6035    6.6762 H         1 ACP         0.0672
     35 H5'1       -0.1929   -3.8610    3.1379 H         1 ACP         0.0277
     36 H5'2       -0.9476   -4.9382    1.9344 H         1 ACP         0.0277
     37 H4'         0.8886   -3.6447    0.8779 H         1 ACP         0.1249
     38 H3'        -0.7373   -1.2359    1.9870 H         1 ACP         0.0564
     39 HO3'        1.1626   -1.9325    3.0084 H         1 ACP         0.4511
     40 H2'        -0.0384   -0.0310    0.0096 H         1 ACP         0.0716
     41 HO2'        2.1463   -0.7958    0.0370 H         1 ACP         0.4454
     42 H1'        -0.4769   -2.1002   -1.8093 H         1 ACP         0.1310
     43 H8         -3.2974   -2.7789    0.2194 H         1 ACP         0.3565
     44 HN61       -6.2956    0.6838   -0.9296 H         1 ACP         0.4414
     45 HN62       -6.1788    2.2266   -1.7327 H         1 ACP         0.4414
     46 H2         -1.7135    2.6057   -2.8421 H         1 ACP         0.0676
     47 H47        -5.2337   -1.2102   -0.1507 H         1 ACP         0.5052
@<TRIPOS>BOND
     1    1    2 2
     2    1    3 1
     3    1    4 1
     4    1    8 1
     5    4   32 1
     6    5    6 2
     7    5    7 1
     8    5    8 1
     9    5   12 1
    10    8   33 1
    11    8   34 1
    12    9   10 2
    13    9   11 1
    14    9   12 1
    15    9   13 1
    16   13   14 1
    17   14   15 1
    18   14   35 1
    19   14   36 1
    20   15   16 1
    21   15   17 1
    22   15   37 1
    23   16   21 1
    24   17   18 1
    25   17   19 1
    26   17   38 1
    27   18   39 1
    28   19   20 1
    29   19   21 1
    30   19   40 1
    31   20   41 1
    32   21   22 1
    33   21   42 1
    34   22   23 ar
    35   22   31 ar
    36   23   24 ar
    37   23   43 1
    38   24   25 ar
    39   24   47 1
    40   25   26 ar
    41   25   31 ar
    42   26   27 1
    43   26   28 ar
    44   27   44 1
    45   27   45 1
    46   28   29 ar
    47   29   30 ar
    48   29   46 1
    49   30   31 ar
@<TRIPOS>SUBSTRUCTURE
     1 ACP         1 GROUP 0 A     ****
@<TRIPOS>MOLECULE
[[5-(6-amino-7,8-dihydropurin-8-ylium-9-yl)-3,4-dihydroxy-tetrahydrofuran-2-yl]methoxy-oxido-phosphoryl]oxy-[[hydroxy(oxido)phosphoryl]methyl]phosphinate
   47    49     1     0     0
SMALL
USER_CHARGES

@<TRIPOS>ATOM
      1 PG          1.4076   -3.7216   -5.0483 P.3       1 ACP         1.3755
      2 O1G         1.9435   -3.1986   -3.7361 O.co2     1 ACP        -0.8970
      3 O2G         1.5501   -5.1705   -5.4542 O.co2     1 ACP        -0.8970
      4 O3G        -0.1483   -3.2635   -5.2194 O.3       1 ACP        -0.7959
      5 PB          1.8928   -0.8693   -6.5330 P.3       1 ACP         1.5194
      6 O1B         0.4081   -0.6220   -6.6641 O.co2     1 ACP        -0.8958
      7 O2B         2.8867   -0.3554   -7.5491 O.co2     1 ACP        -0.8958
      8 C3B         2.1388   -2.6957   -6.3993 C.3       1 ACP        -0.5612
      9 PA          2.3321    0.9617   -4.2393 P.3       1 ACP         1.6019
     10 O1A         0.8820    1.3039   -3.9746 O.co2     1 ACP        -0.9040
     11 O2A         3.2385    1.9433   -4.9501 O.co2     1 ACP        -0.9040
     12 O3A         2.3890   -0.4639   -5.0338 O.3       1 ACP        -0.8156
     13 O5'         3.0198    0.5138   -2.8245 O.3       1 ACP        -0.5465
     14 C5'         2.2816   -0.2918   -1.9206 C.3       1 ACP         0.2108
     15 C4'         2.7248    0.0226   -0.4980 C.3       1 ACP         0.0552
     16 O4'         2.4697    1.4219   -0.2462 O.3       1 ACP        -0.3428
     17 C3'         1.9404   -0.7419    0.5596 C.3       1 ACP         0.0750
     18 O3'         2.7418   -0.8086    1.7389 O.3       1 ACP        -0.6066
     19 C2'         0.7477    0.1630    0.7858 C.3       1 ACP         0.1185
     20 O2'         0.1373   -0.0577    2.0407 O.3       1 ACP        -0.5858
     21 C1'         1.3733    1.5427    0.6747 C.3       1 ACP         0.3826
     22 N9          0.4520    2.5240    0.1767 N.pl3     1 ACP        -0.5729
     23 C8         -0.8602    2.5861    0.3496 C.ar      1 ACP         0.3288
     24 N7         -1.4308    3.6326   -0.2443 N.pl3     1 ACP        -0.5338
     25 C5         -0.4080    4.2856   -0.8394 C.ar      1 ACP        -0.2581
     26 C6         -0.3432    5.4196   -1.5943 C.ar      1 ACP         0.7413
     27 N6         -1.5276    6.1333   -1.8702 N.pl3     1 ACP        -0.9512
     28 N1          0.8395    5.8603   -2.0764 N.ar      1 ACP        -0.7699
     29 C2          1.9319    5.1095   -1.7617 C.ar      1 ACP         0.6898
     30 N3          1.9773    3.9761   -1.0249 N.ar      1 ACP        -0.6800
     31 C4          0.7724    3.6031   -0.5836 C.ar      1 ACP         0.6129
     32 HOG3       -0.7992   -3.5577   -4.5471 H         1 ACP         0.4199
     33 H3B1        1.7759   -3.1279   -7.3385 H         1 ACP         0.0672
     34 H3B2        3.2221   -2.8554   -6.3624 H         1 ACP         0.0672
     35 H5'1        1.2153   -0.0781   -2.0454 H         1 ACP         0.0277
     36 H5'2        2.4645   -1.3454   -2.1547 H         1 ACP         0.0277
     37 H4'         3.8050   -0.1388   -0.4008 H         1 ACP         0.1249
     38 H3'         1.6784   -1.7629    0.2714 H         1 ACP         0.0564
     39 HO3'        2.2232   -1.2979    2.3953 H         1 ACP         0.4511
     40 H2'        -0.0011    0.0027    0.0003 H         1 ACP         0.0716
     41 HO2'       -0.1563   -0.9855    2.0596 H         1 ACP         0.4454
     42 H1'         1.7826    1.9024    1.6451 H         1 ACP         0.1310
     43 H8         -1.4217    1.8638    0.9164 H         1 ACP         0.3565
     44 HN61       -2.4023    5.7711   -1.5477 H         1 ACP         0.4414
     45 HN62       -1.4857    6.9379   -2.4627 H         1 ACP         0.4414
     46 H2          2.8789    5.4660   -2.1503 H         1 ACP         0.0676
     47 H47        -2.4129    3.8706   -0.2402 H         1 ACP         0.5052
@<TRIPOS>BOND
     1    1    2 2
     2    1    3 1
     3    1    4 1
     4    1    8 1
     5    4   32 1
     6    5    6 2
     7    5    7 1
     8    5    8 1
     9    5   12 1
    10    8   33 1
    11    8   34 1
    12    9   10 2
    13    9   11 1
    14    9   12 1
    15    9   13 1
    16   13   14 1
    17   14   15 1
    18   14   35 1
    19   14   36 1
    20   15   16 1
    21   15   17 1
    22   15   37 1
    23   16   21 1
    24   17   18 1
    25   17   19 1
    26   17   38 1
    27   18   39 1
    28   19   20 1
    29   19   21 1
    30   19   40 1
    31   20   41 1
    32   21   22 1
    33   21   42 1
    34   22   23 ar
    35   22   31 ar
    36   23   24 ar
    37   23   43 1
    38   24   25 ar
    39   24   47 1
    40   25   26 ar
    41   25   31 ar
    42   26   27 1
    43   26   28 ar
    44   27   44 1
    45   27   45 1
    46   28   29 ar
    47   29   30 ar
    48   29   46 1
    49   30   31 ar
@<TRIPOS>SUBSTRUCTURE
     1 ACP         1 GROUP 0 A     ****
@<TRIPOS>MOLECULE
[[5-(6-amino-7,8-dihydropurin-8-ylium-9-yl)-3,4-dihydroxy-tetrahydrofuran-2-yl]methoxy-oxido-phosphoryl]oxy-[[hydroxy(oxido)phosphoryl]methyl]phosphinate
   47    49     1     0     0
SMALL
USER_CHARGES

@<TRIPOS>ATOM
      1 PG          6.8298   -0.9360   -5.4624 P.3       1 ACP         1.3755
      2 O1G         7.9192   -1.9492   -5.1993 O.co2     1 ACP        -0.8970
      3 O2G         6.4477    0.1153   -4.4460 O.co2     1 ACP        -0.8970
      4 O3G         7.0907   -0.2222   -6.9055 O.3       1 ACP        -0.7959
      5 PB          3.6903   -1.0441   -6.3033 P.3       1 ACP         1.5194
      6 O1B         2.6870   -2.1338   -6.6009 O.co2     1 ACP        -0.8958
      7 O2B         3.9896    0.0640   -7.2865 O.co2     1 ACP        -0.8958
      8 C3B         5.2945   -1.8664   -5.8976 C.3       1 ACP        -0.5612
      9 PA          2.2847    0.7049   -4.3612 P.3       1 ACP         1.6019
     10 O1A         0.9061    0.0980   -4.5052 O.co2     1 ACP        -0.9040
     11 O2A         2.6178    2.0264   -5.0194 O.co2     1 ACP        -0.9040
     12 O3A         3.3878   -0.4019   -4.8356 O.3       1 ACP        -0.8156
     13 O5'         2.6459    0.7852   -2.7681 O.3       1 ACP        -0.5465
     14 C5'         2.2816   -0.2918   -1.9206 C.3       1 ACP         0.2108
     15 C4'         2.7248    0.0226   -0.4980 C.3       1 ACP         0.0552
     16 O4'         2.4697    1.4219   -0.2462 O.3       1 ACP        -0.3428
     17 C3'         1.9404   -0.7419    0.5596 C.3       1 ACP         0.0750
     18 O3'         2.7418   -0.8086    1.7389 O.3       1 ACP        -0.6066
     19 C2'         0.7477    0.1630    0.7858 C.3       1 ACP         0.1185
     20 O2'         0.1373   -0.0577    2.0407 O.3       1 ACP        -0.5858
     21 C1'         1.3733    1.5427    0.6747 C.3       1 ACP         0.3826
     22 N9          0.4520    2.5240    0.1767 N.pl3     1 ACP        -0.5729
     23 C8         -0.2172    2.5216   -0.9668 C.ar      1 ACP         0.3288
     24 N7         -1.0011    3.5855   -1.1321 N.pl3     1 ACP        -0.5338
     25 C5         -0.8184    4.3200   -0.0123 C.ar      1 ACP        -0.2581
     26 C6         -1.3349    5.5079    0.4144 C.ar      1 ACP         0.7413
     27 N6         -2.2567    6.1930   -0.4036 N.pl3     1 ACP        -0.9512
     28 N1         -0.9716    6.0291    1.6069 N.ar      1 ACP        -0.7699
     29 C2         -0.0765    5.3009    2.3312 C.ar      1 ACP         0.6898
     30 N3          0.4933    4.1191    2.0023 N.ar      1 ACP        -0.6800
     31 C4          0.0865    3.6675    0.8123 C.ar      1 ACP         0.6129
     32 HOG3        7.9288    0.2695   -7.0394 H         1 ACP         0.4199
     33 H3B1        5.0960   -2.5358   -5.0532 H         1 ACP         0.0672
     34 H3B2        5.5425   -2.4933   -6.7612 H         1 ACP         0.0672
     35 H5'1        1.1958   -0.4240   -1.9628 H         1 ACP         0.0277
     36 H5'2        2.7668   -1.2049   -2.2799 H         1 ACP         0.0277
     37 H4'         3.8050   -0.1388   -0.4008 H         1 ACP         0.1249
     38 H3'         1.6784   -1.7629    0.2714 H         1 ACP         0.0564
     39 HO3'        2.2232   -1.2979    2.3953 H         1 ACP         0.4511
     40 H2'        -0.0011    0.0027    0.0003 H         1 ACP         0.0716
     41 HO2'       -0.6141    0.5574    2.1082 H         1 ACP         0.4454
     42 H1'         1.7826    1.9024    1.6451 H         1 ACP         0.1310
     43 H8         -0.1423    1.7373   -1.6999 H         1 ACP         0.3565
     44 HN61       -2.4811    5.8206   -1.3042 H         1 ACP         0.4414
     45 HN62       -2.5986    7.0863   -0.1113 H         1 ACP         0.4414
     46 H2          0.2128    5.7222    3.2871 H         1 ACP         0.0676
     47 H47        -1.5947    3.7835   -1.9255 H         1 ACP         0.5052
@<TRIPOS>BOND
     1    1    2 2
     2    1    3 1
     3    1    4 1
     4    1    8 1
     5    4   32 1
     6    5    6 2
     7    5    7 1
     8    5    8 1
     9    5   12 1
    10    8   33 1
    11    8   34 1
    12    9   10 2
    13    9   11 1
    14    9   12 1
    15    9   13 1
    16   13   14 1
    17   14   15 1
    18   14   35 1
    19   14   36 1
    20   15   16 1
    21   15   17 1
    22   15   37 1
    23   16   21 1
    24   17   18 1
    25   17   19 1
    26   17   38 1
    27   18   39 1
    28   19   20 1
    29   19   21 1
    30   19   40 1
    31   20   41 1
    32   21   22 1
    33   21   42 1
    34   22   23 ar
    35   22   31 ar
    36   23   24 ar
    37   23   43 1
    38   24   25 ar
    39   24   47 1
    40   25   26 ar
    41   25   31 ar
    42   26   27 1
    43   26   28 ar
    44   27   44 1
    45   27   45 1
    46   28   29 ar
    47   29   30 ar
    48   29   46 1
    49   30   31 ar
@<TRIPOS>SUBSTRUCTURE
     1 ACP         1 GROUP 0 A     ****
@<TRIPOS>MOLECULE
[[5-(6-amino-7,8-dihydropurin-8-ylium-9-yl)-3,4-dihydroxy-tetrahydrofuran-2-yl]methoxy-oxido-phosphoryl]oxy-[[hydroxy(oxido)phosphoryl]methyl]phosphinate
   47    49     1     0     0
SMALL
USER_CHARGES

@<TRIPOS>ATOM
      1 PG         -0.8606   -4.8036    6.8514 P.3       1 ACP         1.3755
      2 O1G         0.1169   -4.8093    8.0035 O.co2     1 ACP        -0.8970
      3 O2G        -2.1325   -3.9878    6.8808 O.co2     1 ACP        -0.8970
      4 O3G        -0.0594   -4.5048    5.4626 O.3       1 ACP        -0.7959
      5 PB         -2.5201   -7.0478    5.1827 P.3       1 ACP         1.5194
      6 O1B        -3.8390   -6.3729    5.4790 O.co2     1 ACP        -0.8958
      7 O2B        -2.4038   -8.5446    5.0087 O.co2     1 ACP        -0.8958
      8 C3B        -1.3368   -6.5561    6.5139 C.3       1 ACP        -0.5612
      9 PA         -2.2655   -6.0670    2.3934 P.3       1 ACP         1.6019
     10 O1A        -3.4578   -5.1352    2.3983 O.co2     1 ACP        -0.9040
     11 O2A        -2.3433   -7.4149    1.7098 O.co2     1 ACP        -0.9040
     12 O3A        -1.7840   -6.2967    3.9369 O.3       1 ACP        -0.8156
     13 O5'        -0.9728   -5.2427    1.8237 O.3       1 ACP        -0.5465
     14 C5'        -0.7840   -3.8935    2.2172 C.3       1 ACP         0.2108
     15 C4'        -0.0724   -3.1466    1.1027 C.3       1 ACP         0.0552
     16 O4'        -0.8674   -3.1929   -0.0945 O.3       1 ACP        -0.3428
     17 C3'         0.1338   -1.6715    1.4027 C.3       1 ACP         0.0750
     18 O3'         1.2893   -1.4445    2.1808 O.3       1 ACP        -0.6066
     19 C2'         0.2158   -1.0724    0.0128 C.3       1 ACP         0.1185
     20 O2'         1.5141   -1.2448   -0.5513 O.3       1 ACP        -0.5858
     21 C1'        -0.7897   -1.9176   -0.7583 C.3       1 ACP         0.3826
     22 N9         -2.1040   -1.3333   -0.7704 N.pl3     1 ACP        -0.5729
     23 C8         -3.0822   -1.4850    0.1102 C.ar      1 ACP         0.3288
     24 N7         -4.1844   -0.7999   -0.1888 N.pl3     1 ACP        -0.5338
     25 C5         -3.8875   -0.1651   -1.3445 C.ar      1 ACP        -0.2581
     26 C6         -4.5941    0.6799   -2.1486 C.ar      1 ACP         0.7413
     27 N6         -5.9138    1.0274   -1.7939 N.pl3     1 ACP        -0.9512
     28 N1         -4.0421    1.1824   -3.2748 N.ar      1 ACP        -0.7699
     29 C2         -2.7637    0.7937   -3.5405 C.ar      1 ACP         0.6898
     30 N3         -1.9788   -0.0343   -2.8139 N.ar      1 ACP        -0.6800
     31 C4         -2.5915   -0.4902   -1.7174 C.ar      1 ACP         0.6129
     32 HOG3        0.4326   -3.6603    5.3788 H         1 ACP         0.4199
     33 H3B1       -1.7459   -6.9454    7.4529 H         1 ACP         0.0672
     34 H3B2       -0.4073   -7.0998    6.3114 H         1 ACP         0.0672
     35 H5'1       -1.7614   -3.4427    2.4167 H         1 ACP         0.0277
     36 H5'2       -0.1870   -3.8723    3.1344 H         1 ACP         0.0277
     37 H4'         0.8886   -3.6447    0.8779 H         1 ACP         0.1249
     38 H3'        -0.7373   -1.2359    1.9870 H         1 ACP         0.0564
     39 HO3'        1.1626   -1.9325    3.0084 H         1 ACP         0.4511
     40 H2'        -0.0384   -0.0310    0.0096 H         1 ACP         0.0716
     41 HO2'        2.1463   -0.7958    0.0370 H         1 ACP         0.4454
     42 H1'        -0.4769   -2.1002   -1.8093 H         1 ACP         0.1310
     43 H8         -3.0031   -2.1011    0.9891 H         1 ACP         0.3565
     44 HN61       -6.3271    0.6117   -0.9836 H         1 ACP         0.4414
     45 HN62       -6.4471    1.6092   -2.4083 H         1 ACP         0.4414
     46 H2         -2.3243    1.1986   -4.4449 H         1 ACP         0.0676
     47 H47        -5.0436   -0.7722    0.3425 H         1 ACP         0.5052
@<TRIPOS>BOND
     1    1    2 2
     2    1    3 1
     3    1    4 1
     4    1    8 1
     5    4   32 1
     6    5    6 2
     7    5    7 1
     8    5    8 1
     9    5   12 1
    10    8   33 1
    11    8   34 1
    12    9   10 2
    13    9   11 1
    14    9   12 1
    15    9   13 1
    16   13   14 1
    17   14   15 1
    18   14   35 1
    19   14   36 1
    20   15   16 1
    21   15   17 1
    22   15   37 1
    23   16   21 1
    24   17   18 1
    25   17   19 1
    26   17   38 1
    27   18   39 1
    28   19   20 1
    29   19   21 1
    30   19   40 1
    31   20   41 1
    32   21   22 1
    33   21   42 1
    34   22   23 ar
    35   22   31 ar
    36   23   24 ar
    37   23   43 1
    38   24   25 ar
    39   24   47 1
    40   25   26 ar
    41   25   31 ar
    42   26   27 1
    43   26   28 ar
    44   27   44 1
    45   27   45 1
    46   28   29 ar
    47   29   30 ar
    48   29   46 1
    49   30   31 ar
@<TRIPOS>SUBSTRUCTURE
     1 ACP         1 GROUP 0 A     ****
@<TRIPOS>MOLECULE
[[5-(6-amino-7,8-dihydropurin-8-ylium-9-yl)-3,4-dihydroxy-tetrahydrofuran-2-yl]methoxy-oxido-phosphoryl]oxy-[[hydroxy(oxido)phosphoryl]methyl]phosphinate
   47    49     1     0     0
SMALL
USER_CHARGES

@<TRIPOS>ATOM
      1 PG          6.8244   -3.1805   -5.4367 P.3       1 ACP         1.3755
      2 O1G         8.0575   -2.5868   -6.0768 O.co2     1 ACP        -0.8970
      3 O2G         5.4909   -3.2214   -6.1469 O.co2     1 ACP        -0.8970
      4 O3G         7.1747   -4.6652   -4.8599 O.3       1 ACP        -0.7959
      5 PB          5.1673   -2.7134   -2.6778 P.3       1 ACP         1.5194
      6 O1B         5.2986   -1.8052   -1.4776 O.co2     1 ACP        -0.8958
      7 O2B         5.1045   -4.2176   -2.5452 O.co2     1 ACP        -0.8958
      8 C3B         6.5636   -2.3209   -3.8226 C.3       1 ACP        -0.5612
      9 PA          2.3309   -2.4063   -3.4945 P.3       1 ACP         1.6019
     10 O1A         2.0488   -3.8856   -3.3475 O.co2     1 ACP        -0.9040
     11 O2A         1.6532   -1.5962   -4.5784 O.co2     1 ACP        -0.9040
     12 O3A         3.9454   -2.1996   -3.6270 O.3       1 ACP        -0.8156
     13 O5'         2.0818   -1.6902   -2.0452 O.3       1 ACP        -0.5465
     14 C5'         2.2816   -0.2918   -1.9206 C.3       1 ACP         0.2108
     15 C4'         2.7248    0.0226   -0.4980 C.3       1 ACP         0.0552
     16 O4'         2.4697    1.4219   -0.2462 O.3       1 ACP        -0.3428
     17 C3'         1.9404   -0.7419    0.5596 C.3       1 ACP         0.0750
     18 O3'         2.7418   -0.8086    1.7389 O.3       1 ACP        -0.6066
     19 C2'         0.7477    0.1630    0.7858 C.3       1 ACP         0.1185
     20 O2'         0.1373   -0.0577    2.0407 O.3       1 ACP        -0.5858
     21 C1'         1.3733    1.5427    0.6747 C.3       1 ACP         0.3826
     22 N9          0.4520    2.5240    0.1767 N.pl3     1 ACP        -0.5729
     23 C8          0.1928    2.8484   -1.0815 C.ar      1 ACP         0.3288
     24 N7         -0.7248    3.8048   -1.2110 N.pl3     1 ACP        -0.5338
     25 C5         -1.0765    4.1129    0.0571 C.ar      1 ACP        -0.2581
     26 C6         -1.9614    5.0063    0.5851 C.ar      1 ACP         0.7413
     27 N6         -2.7145    5.8254   -0.2810 N.pl3     1 ACP        -0.9512
     28 N1         -2.1199    5.1113    1.9228 N.ar      1 ACP        -0.7699
     29 C2         -1.3522    4.2822    2.6839 C.ar      1 ACP         0.6898
     30 N3         -0.4501    3.3660    2.2638 N.ar      1 ACP        -0.6800
     31 C4         -0.3487    3.3198    0.9322 C.ar      1 ACP         0.6129
     32 HOG3        7.4856   -5.3503   -5.4894 H         1 ACP         0.4199
     33 H3B1        6.4829   -1.2537   -4.0570 H         1 ACP         0.0672
     34 H3B2        7.4822   -2.4600   -3.2417 H         1 ACP         0.0672
     35 H5'1        3.0467    0.0218   -2.6379 H         1 ACP         0.0277
     36 H5'2        1.3432    0.2220   -2.1518 H         1 ACP         0.0277
     37 H4'         3.8050   -0.1388   -0.4008 H         1 ACP         0.1249
     38 H3'         1.6784   -1.7629    0.2714 H         1 ACP         0.0564
     39 HO3'        2.2232   -1.2979    2.3953 H         1 ACP         0.4511
     40 H2'        -0.0011    0.0027    0.0003 H         1 ACP         0.0716
     41 HO2'       -0.6141    0.5574    2.1082 H         1 ACP         0.4454
     42 H1'         1.7826    1.9024    1.6451 H         1 ACP         0.1310
     43 H8          0.6728    2.3873   -1.9272 H         1 ACP         0.3565
     44 HN61       -2.5537    5.7714   -1.2667 H         1 ACP         0.4414
     45 HN62       -3.3283    6.5126    0.1080 H         1 ACP         0.4414
     46 H2         -1.4818    4.3694    3.7565 H         1 ACP         0.0676
     47 H47        -1.0701    4.2005   -2.0743 H         1 ACP         0.5052
@<TRIPOS>BOND
     1    1    2 2
     2    1    3 1
     3    1    4 1
     4    1    8 1
     5    4   32 1
     6    5    6 2
     7    5    7 1
     8    5    8 1
     9    5   12 1
    10    8   33 1
    11    8   34 1
    12    9   10 2
    13    9   11 1
    14    9   12 1
    15    9   13 1
    16   13   14 1
    17   14   15 1
    18   14   35 1
    19   14   36 1
    20   15   16 1
    21   15   17 1
    22   15   37 1
    23   16   21 1
    24   17   18 1
    25   17   19 1
    26   17   38 1
    27   18   39 1
    28   19   20 1
    29   19   21 1
    30   19   40 1
    31   20   41 1
    32   21   22 1
    33   21   42 1
    34   22   23 ar
    35   22   31 ar
    36   23   24 ar
    37   23   43 1
    38   24   25 ar
    39   24   47 1
    40   25   26 ar
    41   25   31 ar
    42   26   27 1
    43   26   28 ar
    44   27   44 1
    45   27   45 1
    46   28   29 ar
    47   29   30 ar
    48   29   46 1
    49   30   31 ar
@<TRIPOS>SUBSTRUCTURE
     1 ACP         1 GROUP 0 A     ****
@<TRIPOS>MOLECULE
[[5-(6-amino-7,8-dihydropurin-8-ylium-9-yl)-3,4-dihydroxy-tetrahydrofuran-2-yl]methoxy-oxido-phosphoryl]oxy-[[hydroxy(oxido)phosphoryl]methyl]phosphinate
   47    49     1     0     0
SMALL
USER_CHARGES

@<TRIPOS>ATOM
      1 PG          3.2422   -4.7065    4.5492 P.3       1 ACP         1.3755
      2 O1G         4.7112   -4.3959    4.3809 O.co2     1 ACP        -0.8970
      3 O2G         2.4754   -4.3151    5.7914 O.co2     1 ACP        -0.8970
      4 O3G         2.4270   -4.2017    3.2299 O.3       1 ACP        -0.7959
      5 PB          1.3890   -7.3762    4.4324 P.3       1 ACP         1.5194
      6 O1B         0.8481   -7.1287    5.8212 O.co2     1 ACP        -0.8958
      7 O2B         1.5665   -8.7697    3.8748 O.co2     1 ACP        -0.8958
      8 C3B         3.0257   -6.5263    4.3177 C.3       1 ACP        -0.5612
      9 PA         -1.0048   -6.4109    2.9679 P.3       1 ACP         1.6019
     10 O1A        -1.7723   -5.8853    4.1614 O.co2     1 ACP        -0.9040
     11 O2A        -1.3819   -7.7301    2.3290 O.co2     1 ACP        -0.9040
     12 O3A         0.5812   -6.4578    3.3543 O.3       1 ACP        -0.8156
     13 O5'        -0.9728   -5.2427    1.8237 O.3       1 ACP        -0.5465
     14 C5'        -0.7840   -3.8935    2.2172 C.3       1 ACP         0.2108
     15 C4'        -0.0724   -3.1466    1.1027 C.3       1 ACP         0.0552
     16 O4'        -0.8674   -3.1929   -0.0945 O.3       1 ACP        -0.3428
     17 C3'         0.1338   -1.6715    1.4027 C.3       1 ACP         0.0750
     18 O3'         1.2893   -1.4445    2.1808 O.3       1 ACP        -0.6066
     19 C2'         0.2158   -1.0724    0.0128 C.3       1 ACP         0.1185
     20 O2'         1.5141   -1.2448   -0.5513 O.3       1 ACP        -0.5858
     21 C1'        -0.7897   -1.9176   -0.7583 C.3       1 ACP         0.3826
     22 N9         -2.1040   -1.3333   -0.7704 N.pl3     1 ACP        -0.5729
     23 C8         -3.2304   -1.8262   -0.2767 C.ar      1 ACP         0.3288
     24 N7         -4.2847   -1.0309   -0.4481 N.pl3     1 ACP        -0.5338
     25 C5         -3.7951    0.0479   -1.0985 C.ar      1 ACP        -0.2581
     26 C6         -4.3691    1.1983   -1.5536 C.ar      1 ACP         0.7413
     27 N6         -5.7501    1.4047   -1.3573 N.pl3     1 ACP        -0.9512
     28 N1         -3.6289    2.1345   -2.1869 N.ar      1 ACP        -0.7699
     29 C2         -2.3041    1.8525   -2.3333 C.ar      1 ACP         0.6898
     30 N3         -1.6387    0.7492   -1.9218 N.ar      1 ACP        -0.6800
     31 C4         -2.4348   -0.1293   -1.3053 C.ar      1 ACP         0.6129
     32 HOG3        2.4574   -3.2492    2.9973 H         1 ACP         0.4199
     33 H3B1        3.6774   -7.0056    5.0565 H         1 ACP         0.0672
     34 H3B2        3.4242   -6.7653    3.3255 H         1 ACP         0.0672
     35 H5'1       -1.7614   -3.4427    2.4167 H         1 ACP         0.0277
     36 H5'2       -0.1870   -3.8723    3.1344 H         1 ACP         0.0277
     37 H4'         0.8886   -3.6447    0.8779 H         1 ACP         0.1249
     38 H3'        -0.7373   -1.2359    1.9870 H         1 ACP         0.0564
     39 HO3'        2.0374   -1.7816    1.6652 H         1 ACP         0.4511
     40 H2'        -0.0384   -0.0310    0.0096 H         1 ACP         0.0716
     41 HO2'        1.4998   -0.8412   -1.4369 H         1 ACP         0.4454
     42 H1'        -0.4769   -2.1002   -1.8093 H         1 ACP         0.1310
     43 H8         -3.2974   -2.7789    0.2194 H         1 ACP         0.3565
     44 HN61       -6.2956    0.6838   -0.9296 H         1 ACP         0.4414
     45 HN62       -6.1788    2.2266   -1.7327 H         1 ACP         0.4414
     46 H2         -1.7135    2.6057   -2.8421 H         1 ACP         0.0676
     47 H47        -5.2337   -1.2102   -0.1507 H         1 ACP         0.5052
@<TRIPOS>BOND
     1    1    2 2
     2    1    3 1
     3    1    4 1
     4    1    8 1
     5    4   32 1
     6    5    6 2
     7    5    7 1
     8    5    8 1
     9    5   12 1
    10    8   33 1
    11    8   34 1
    12    9   10 2
    13    9   11 1
    14    9   12 1
    15    9   13 1
    16   13   14 1
    17   14   15 1
    18   14   35 1
    19   14   36 1
    20   15   16 1
    21   15   17 1
    22   15   37 1
    23   16   21 1
    24   17   18 1
    25   17   19 1
    26   17   38 1
    27   18   39 1
    28   19   20 1
    29   19   21 1
    30   19   40 1
    31   20   41 1
    32   21   22 1
    33   21   42 1
    34   22   23 ar
    35   22   31 ar
    36   23   24 ar
    37   23   43 1
    38   24   25 ar
    39   24   47 1
    40   25   26 ar
    41   25   31 ar
    42   26   27 1
    43   26   28 ar
    44   27   44 1
    45   27   45 1
    46   28   29 ar
    47   29   30 ar
    48   29   46 1
    49   30   31 ar
@<TRIPOS>SUBSTRUCTURE
     1 ACP         1 GROUP 0 A     ****
@<TRIPOS>MOLECULE
[[5-(6-amino-7,8-dihydropurin-8-ylium-9-yl)-3,4-dihydroxy-tetrahydrofuran-2-yl]methoxy-oxido-phosphoryl]oxy-[[hydroxy(oxido)phosphoryl]methyl]phosphinate
   47    49     1     0     0
SMALL
USER_CHARGES

@<TRIPOS>ATOM
      1 PG         -0.1528    0.8076   -5.6809 P.3       1 ACP         1.3755
      2 O1G        -0.8941    0.4859   -4.4042 O.co2     1 ACP        -0.8970
      3 O2G        -0.8141    1.5253   -6.8349 O.co2     1 ACP        -0.8970
      4 O3G         1.2539    1.5491   -5.3186 O.3       1 ACP        -0.7959
      5 PB          1.7357   -1.8251   -5.4014 P.3       1 ACP         1.5194
      6 O1B         2.9625   -0.9848   -5.1341 O.co2     1 ACP        -0.8958
      7 O2B         1.8124   -3.1581   -6.1094 O.co2     1 ACP        -0.8958
      8 C3B         0.5397   -0.7736   -6.3385 C.3       1 ACP        -0.5612
      9 PA          1.2676   -2.6330   -2.5845 P.3       1 ACP         1.6019
     10 O1A         1.8014   -4.0298   -2.8163 O.co2     1 ACP        -0.9040
     11 O2A         0.1253   -2.3943   -1.6209 O.co2     1 ACP        -0.9040
     12 O3A         0.8686   -1.9867   -4.0302 O.3       1 ACP        -0.8156
     13 O5'         2.5237   -1.6631   -2.1889 O.3       1 ACP        -0.5465
     14 C5'         2.2816   -0.2918   -1.9206 C.3       1 ACP         0.2108
     15 C4'         2.7248    0.0226   -0.4980 C.3       1 ACP         0.0552
     16 O4'         2.4697    1.4219   -0.2462 O.3       1 ACP        -0.3428
     17 C3'         1.9404   -0.7419    0.5596 C.3       1 ACP         0.0750
     18 O3'         2.7418   -0.8086    1.7389 O.3       1 ACP        -0.6066
     19 C2'         0.7477    0.1630    0.7858 C.3       1 ACP         0.1185
     20 O2'         0.1373   -0.0577    2.0407 O.3       1 ACP        -0.5858
     21 C1'         1.3733    1.5427    0.6747 C.3       1 ACP         0.3826
     22 N9          0.4520    2.5240    0.1767 N.pl3     1 ACP        -0.5729
     23 C8         -0.8602    2.5861    0.3496 C.ar      1 ACP         0.3288
     24 N7         -1.4308    3.6326   -0.2443 N.pl3     1 ACP        -0.5338
     25 C5         -0.4080    4.2856   -0.8394 C.ar      1 ACP        -0.2581
     26 C6         -0.3432    5.4196   -1.5943 C.ar      1 ACP         0.7413
     27 N6         -1.5276    6.1333   -1.8702 N.pl3     1 ACP        -0.9512
     28 N1          0.8395    5.8603   -2.0764 N.ar      1 ACP        -0.7699
     29 C2          1.9319    5.1095   -1.7617 C.ar      1 ACP         0.6898
     30 N3          1.9773    3.9761   -1.0249 N.ar      1 ACP        -0.6800
     31 C4          0.7724    3.6031   -0.5836 C.ar      1 ACP         0.6129
     32 HOG3        1.2225    2.3967   -4.8259 H         1 ACP         0.4199
     33 H3B1        1.0254   -0.5205   -7.2874 H         1 ACP         0.0672
     34 H3B2       -0.3158   -1.4178   -6.5702 H         1 ACP         0.0672
     35 H5'1        2.8429    0.3140   -2.6391 H         1 ACP         0.0277
     36 H5'2        1.2125   -0.0906   -2.0420 H         1 ACP         0.0277
     37 H4'         3.8050   -0.1388   -0.4008 H         1 ACP         0.1249
     38 H3'         1.6784   -1.7629    0.2714 H         1 ACP         0.0564
     39 HO3'        2.2232   -1.2979    2.3953 H         1 ACP         0.4511
     40 H2'        -0.0011    0.0027    0.0003 H         1 ACP         0.0716
     41 HO2'       -0.1563   -0.9855    2.0596 H         1 ACP         0.4454
     42 H1'         1.7826    1.9024    1.6451 H         1 ACP         0.1310
     43 H8         -1.4217    1.8638    0.9164 H         1 ACP         0.3565
     44 HN61       -2.4023    5.7711   -1.5477 H         1 ACP         0.4414
     45 HN62       -1.4857    6.9379   -2.4627 H         1 ACP         0.4414
     46 H2          2.8789    5.4660   -2.1503 H         1 ACP         0.0676
     47 H47        -2.4129    3.8706   -0.2402 H         1 ACP         0.5052
@<TRIPOS>BOND
     1    1    2 2
     2    1    3 1
     3    1    4 1
     4    1    8 1
     5    4   32 1
     6    5    6 2
     7    5    7 1
     8    5    8 1
     9    5   12 1
    10    8   33 1
    11    8   34 1
    12    9   10 2
    13    9   11 1
    14    9   12 1
    15    9   13 1
    16   13   14 1
    17   14   15 1
    18   14   35 1
    19   14   36 1
    20   15   16 1
    21   15   17 1
    22   15   37 1
    23   16   21 1
    24   17   18 1
    25   17   19 1
    26   17   38 1
    27   18   39 1
    28   19   20 1
    29   19   21 1
    30   19   40 1
    31   20   41 1
    32   21   22 1
    33   21   42 1
    34   22   23 ar
    35   22   31 ar
    36   23   24 ar
    37   23   43 1
    38   24   25 ar
    39   24   47 1
    40   25   26 ar
    41   25   31 ar
    42   26   27 1
    43   26   28 ar
    44   27   44 1
    45   27   45 1
    46   28   29 ar
    47   29   30 ar
    48   29   46 1
    49   30   31 ar
@<TRIPOS>SUBSTRUCTURE
     1 ACP         1 GROUP 0 A     ****
@<TRIPOS>MOLECULE
[[5-(6-amino-7,8-dihydropurin-8-ylium-9-yl)-3,4-dihydroxy-tetrahydrofuran-2-yl]methoxy-oxido-phosphoryl]oxy-[[hydroxy(oxido)phosphoryl]methyl]phosphinate
   47    49     1     0     0
SMALL
USER_CHARGES

@<TRIPOS>ATOM
      1 PG         -0.3474   -6.5516    6.2203 P.3       1 ACP         1.3755
      2 O1G         0.6536   -6.4469    7.3472 O.co2     1 ACP        -0.8970
      3 O2G        -0.0158   -6.1248    4.8088 O.co2     1 ACP        -0.8970
      4 O3G        -0.9801   -8.0546    6.1954 O.3       1 ACP        -0.7959
      5 PB         -3.3687   -5.4817    5.6704 P.3       1 ACP         1.5194
      6 O1B        -4.3819   -4.6619    6.4346 O.co2     1 ACP        -0.8958
      7 O2B        -3.6844   -6.8622    5.1425 O.co2     1 ACP        -0.8958
      8 C3B        -1.8645   -5.6309    6.7331 C.3       1 ACP        -0.5612
      9 PA         -3.2840   -4.1951    2.9975 P.3       1 ACP         1.6019
     10 O1A        -4.4923   -3.3000    3.1669 O.co2     1 ACP        -0.9040
     11 O2A        -3.3723   -5.4616    2.1737 O.co2     1 ACP        -0.9040
     12 O3A        -2.7155   -4.5802    4.4792 O.3       1 ACP        -0.8156
     13 O5'        -2.0403   -3.2809    2.4568 O.3       1 ACP        -0.5465
     14 C5'        -0.7840   -3.8935    2.2172 C.3       1 ACP         0.2108
     15 C4'        -0.0724   -3.1466    1.1027 C.3       1 ACP         0.0552
     16 O4'        -0.8674   -3.1929   -0.0945 O.3       1 ACP        -0.3428
     17 C3'         0.1338   -1.6715    1.4027 C.3       1 ACP         0.0750
     18 O3'         1.2893   -1.4445    2.1808 O.3       1 ACP        -0.6066
     19 C2'         0.2158   -1.0724    0.0128 C.3       1 ACP         0.1185
     20 O2'         1.5141   -1.2448   -0.5513 O.3       1 ACP        -0.5858
     21 C1'        -0.7897   -1.9176   -0.7583 C.3       1 ACP         0.3826
     22 N9         -2.1040   -1.3333   -0.7704 N.pl3     1 ACP        -0.5729
     23 C8         -3.2304   -1.8262   -0.2767 C.ar      1 ACP         0.3288
     24 N7         -4.2847   -1.0309   -0.4481 N.pl3     1 ACP        -0.5338
     25 C5         -3.7951    0.0479   -1.0985 C.ar      1 ACP        -0.2581
     26 C6         -4.3691    1.1983   -1.5536 C.ar      1 ACP         0.7413
     27 N6         -5.7501    1.4047   -1.3573 N.pl3     1 ACP        -0.9512
     28 N1         -3.6289    2.1345   -2.1869 N.ar      1 ACP        -0.7699
     29 C2         -2.3041    1.8525   -2.3333 C.ar      1 ACP         0.6898
     30 N3         -1.6387    0.7492   -1.9218 N.ar      1 ACP        -0.6800
     31 C4         -2.4348   -0.1293   -1.3053 C.ar      1 ACP         0.6129
     32 HOG3       -0.3743   -8.8150    6.0648 H         1 ACP         0.4199
     33 H3B1       -1.5383   -4.6089    6.9555 H         1 ACP         0.0672
     34 H3B2       -2.1999   -6.0798    7.6746 H         1 ACP         0.0672
     35 H5'1       -0.1929   -3.8610    3.1379 H         1 ACP         0.0277
     36 H5'2       -0.9476   -4.9382    1.9344 H         1 ACP         0.0277
     37 H4'         0.8886   -3.6447    0.8779 H         1 ACP         0.1249
     38 H3'        -0.7373   -1.2359    1.9870 H         1 ACP         0.0564
     39 HO3'        1.3408   -0.4870    2.3219 H         1 ACP         0.4511
     40 H2'        -0.0384   -0.0310    0.0096 H         1 ACP         0.0716
     41 HO2'        1.4998   -0.8412   -1.4369 H         1 ACP         0.4454
     42 H1'        -0.4769   -2.1002   -1.8093 H         1 ACP         0.1310
     43 H8         -3.2974   -2.7789    0.2194 H         1 ACP         0.3565
     44 HN61       -6.2956    0.6838   -0.9296 H         1 ACP         0.4414
     45 HN62       -6.1788    2.2266   -1.7327 H         1 ACP         0.4414
     46 H2         -1.7135    2.6057   -2.8421 H         1 ACP         0.0676
     47 H47        -5.2337   -1.2102   -0.1507 H         1 ACP         0.5052
@<TRIPOS>BOND
     1    1    2 2
     2    1    3 1
     3    1    4 1
     4    1    8 1
     5    4   32 1
     6    5    6 2
     7    5    7 1
     8    5    8 1
     9    5   12 1
    10    8   33 1
    11    8   34 1
    12    9   10 2
    13    9   11 1
    14    9   12 1
    15    9   13 1
    16   13   14 1
    17   14   15 1
    18   14   35 1
    19   14   36 1
    20   15   16 1
    21   15   17 1
    22   15   37 1
    23   16   21 1
    24   17   18 1
    25   17   19 1
    26   17   38 1
    27   18   39 1
    28   19   20 1
    29   19   21 1
    30   19   40 1
    31   20   41 1
    32   21   22 1
    33   21   42 1
    34   22   23 ar
    35   22   31 ar
    36   23   24 ar
    37   23   43 1
    38   24   25 ar
    39   24   47 1
    40   25   26 ar
    41   25   31 ar
    42   26   27 1
    43   26   28 ar
    44   27   44 1
    45   27   45 1
    46   28   29 ar
    47   29   30 ar
    48   29   46 1
    49   30   31 ar
@<TRIPOS>SUBSTRUCTURE
     1 ACP         1 GROUP 0 A     ****
@<TRIPOS>MOLECULE
[[5-(6-amino-7,8-dihydropurin-8-ylium-9-yl)-3,4-dihydroxy-tetrahydrofuran-2-yl]methoxy-oxido-phosphoryl]oxy-[[hydroxy(oxido)phosphoryl]methyl]phosphinate
   47    49     1     0     0
SMALL
USER_CHARGES

@<TRIPOS>ATOM
      1 PG          0.7840   -2.9828   -7.2093 P.3       1 ACP         1.3755
      2 O1G         1.7758   -3.8704   -7.9244 O.co2     1 ACP        -0.8970
      3 O2G         0.7517   -1.4858   -7.4144 O.co2     1 ACP        -0.8970
      4 O3G        -0.7190   -3.5866   -7.3998 O.3       1 ACP        -0.7959
      5 PB         -0.0444   -2.4223   -4.1150 P.3       1 ACP         1.5194
      6 O1B         0.3981   -2.9391   -2.7659 O.co2     1 ACP        -0.8958
      7 O2B        -1.4859   -2.4810   -4.5655 O.co2     1 ACP        -0.8958
      8 C3B         0.9671   -3.2875   -5.3966 C.3       1 ACP        -0.5612
      9 PA          0.3066    0.4590   -3.4972 P.3       1 ACP         1.6019
     10 O1A        -1.1822    0.6875   -3.3518 O.co2     1 ACP        -0.9040
     11 O2A         1.1988    1.5353   -4.0768 O.co2     1 ACP        -0.9040
     12 O3A         0.5368   -0.9168   -4.3464 O.3       1 ACP        -0.8156
     13 O5'         0.8970   -0.0132   -2.0468 O.3       1 ACP        -0.5465
     14 C5'         2.2816   -0.2918   -1.9206 C.3       1 ACP         0.2108
     15 C4'         2.7248    0.0226   -0.4980 C.3       1 ACP         0.0552
     16 O4'         2.4697    1.4219   -0.2462 O.3       1 ACP        -0.3428
     17 C3'         1.9404   -0.7419    0.5596 C.3       1 ACP         0.0750
     18 O3'         2.7418   -0.8086    1.7389 O.3       1 ACP        -0.6066
     19 C2'         0.7477    0.1630    0.7858 C.3       1 ACP         0.1185
     20 O2'         0.1373   -0.0577    2.0407 O.3       1 ACP        -0.5858
     21 C1'         1.3733    1.5427    0.6747 C.3       1 ACP         0.3826
     22 N9          0.4520    2.5240    0.1767 N.pl3     1 ACP        -0.5729
     23 C8          0.5305    3.2394   -0.9358 C.ar      1 ACP         0.3288
     24 N7         -0.4966    4.0680   -1.1145 N.pl3     1 ACP        -0.5338
     25 C5         -1.2879    3.8664   -0.0375 C.ar      1 ACP        -0.2581
     26 C6         -2.4754    4.4084    0.3577 C.ar      1 ACP         0.7413
     27 N6         -3.0892    5.3882   -0.4495 N.pl3     1 ACP        -0.9512
     28 N1         -3.0632    4.0158    1.5092 N.ar      1 ACP        -0.7699
     29 C2         -2.4008    3.0654    2.2262 C.ar      1 ACP         0.6898
     30 N3         -1.2259    2.4663    1.9260 N.ar      1 ACP        -0.6800
     31 C4         -0.7062    2.9047    0.7757 C.ar      1 ACP         0.6129
     32 HOG3       -1.0744   -3.6784   -8.3094 H         1 ACP         0.4199
     33 H3B1        2.0159   -3.0783   -5.1584 H         1 ACP         0.0672
     34 H3B2        0.8036   -4.3597   -5.2411 H         1 ACP         0.0672
     35 H5'1        2.4525   -1.3484   -2.1500 H         1 ACP         0.0277
     36 H5'2        2.8335    0.3232   -2.6384 H         1 ACP         0.0277
     37 H4'         3.8050   -0.1388   -0.4008 H         1 ACP         0.1249
     38 H3'         1.6784   -1.7629    0.2714 H         1 ACP         0.0564
     39 HO3'        2.2232   -1.2979    2.3953 H         1 ACP         0.4511
     40 H2'        -0.0011    0.0027    0.0003 H         1 ACP         0.0716
     41 HO2'       -0.1563   -0.9855    2.0596 H         1 ACP         0.4454
     42 H1'         1.7826    1.9024    1.6451 H         1 ACP         0.1310
     43 H8          1.3437    3.1645   -1.6367 H         1 ACP         0.3565
     44 HN61       -2.6210    5.7042   -1.2748 H         1 ACP         0.4414
     45 HN62       -3.9356    5.8187   -0.1356 H         1 ACP         0.4414
     46 H2         -2.8752    2.7532    3.1495 H         1 ACP         0.0676
     47 H47        -0.6372    4.7004   -1.8900 H         1 ACP         0.5052
@<TRIPOS>BOND
     1    1    2 2
     2    1    3 1
     3    1    4 1
     4    1    8 1
     5    4   32 1
     6    5    6 2
     7    5    7 1
     8    5    8 1
     9    5   12 1
    10    8   33 1
    11    8   34 1
    12    9   10 2
    13    9   11 1
    14    9   12 1
    15    9   13 1
    16   13   14 1
    17   14   15 1
    18   14   35 1
    19   14   36 1
    20   15   16 1
    21   15   17 1
    22   15   37 1
    23   16   21 1
    24   17   18 1
    25   17   19 1
    26   17   38 1
    27   18   39 1
    28   19   20 1
    29   19   21 1
    30   19   40 1
    31   20   41 1
    32   21   22 1
    33   21   42 1
    34   22   23 ar
    35   22   31 ar
    36   23   24 ar
    37   23   43 1
    38   24   25 ar
    39   24   47 1
    40   25   26 ar
    41   25   31 ar
    42   26   27 1
    43   26   28 ar
    44   27   44 1
    45   27   45 1
    46   28   29 ar
    47   29   30 ar
    48   29   46 1
    49   30   31 ar
@<TRIPOS>SUBSTRUCTURE
     1 ACP         1 GROUP 0 A     ****
@<TRIPOS>MOLECULE
[[5-(6-amino-7,8-dihydropurin-8-ylium-9-yl)-3,4-dihydroxy-tetrahydrofuran-2-yl]methoxy-oxido-phosphoryl]oxy-[[hydroxy(oxido)phosphoryl]methyl]phosphinate
   47    49     1     0     0
SMALL
USER_CHARGES

@<TRIPOS>ATOM
      1 PG          1.0320   -4.2335   -3.9643 P.3       1 ACP         1.3755
      2 O1G         0.5594   -5.6156   -4.3506 O.co2     1 ACP        -0.8970
      3 O2G         0.0839   -3.1742   -3.4515 O.co2     1 ACP        -0.8970
      4 O3G         2.3017   -4.3593   -2.9484 O.3       1 ACP        -0.7959
      5 PB          2.6814   -1.8362   -5.4163 P.3       1 ACP         1.5194
      6 O1B         1.5741   -0.8418   -5.1559 O.co2     1 ACP        -0.8958
      7 O2B         3.5747   -1.7453   -6.6320 O.co2     1 ACP        -0.8958
      8 C3B         1.9219   -3.5207   -5.4177 C.3       1 ACP        -0.5612
      9 PA          4.4771   -0.9086   -3.2433 P.3       1 ACP         1.6019
     10 O1A         5.4067   -0.2050   -4.2080 O.co2     1 ACP        -0.9040
     11 O2A         5.0200   -1.5784   -1.9995 O.co2     1 ACP        -0.9040
     12 O3A         3.5986   -2.0028   -4.0787 O.3       1 ACP        -0.8156
     13 O5'         3.2883    0.1336   -2.8242 O.3       1 ACP        -0.5465
     14 C5'         2.2816   -0.2918   -1.9206 C.3       1 ACP         0.2108
     15 C4'         2.7248    0.0226   -0.4980 C.3       1 ACP         0.0552
     16 O4'         2.4697    1.4219   -0.2462 O.3       1 ACP        -0.3428
     17 C3'         1.9404   -0.7419    0.5596 C.3       1 ACP         0.0750
     18 O3'         2.7418   -0.8086    1.7389 O.3       1 ACP        -0.6066
     19 C2'         0.7477    0.1630    0.7858 C.3       1 ACP         0.1185
     20 O2'         0.1373   -0.0577    2.0407 O.3       1 ACP        -0.5858
     21 C1'         1.3733    1.5427    0.6747 C.3       1 ACP         0.3826
     22 N9          0.4520    2.5240    0.1767 N.pl3     1 ACP        -0.5729
     23 C8         -0.8602    2.5861    0.3496 C.ar      1 ACP         0.3288
     24 N7         -1.4308    3.6326   -0.2443 N.pl3     1 ACP        -0.5338
     25 C5         -0.4080    4.2856   -0.8394 C.ar      1 ACP        -0.2581
     26 C6         -0.3432    5.4196   -1.5943 C.ar      1 ACP         0.7413
     27 N6         -1.5276    6.1333   -1.8702 N.pl3     1 ACP        -0.9512
     28 N1          0.8395    5.8603   -2.0764 N.ar      1 ACP        -0.7699
     29 C2          1.9319    5.1095   -1.7617 C.ar      1 ACP         0.6898
     30 N3          1.9773    3.9761   -1.0249 N.ar      1 ACP        -0.6800
     31 C4          0.7724    3.6031   -0.5836 C.ar      1 ACP         0.6129
     32 HOG3        2.1743   -4.8285   -2.0964 H         1 ACP         0.4199
     33 H3B1        1.2084   -3.5393   -6.2490 H         1 ACP         0.0672
     34 H3B2        2.7296   -4.2189   -5.6637 H         1 ACP         0.0672
     35 H5'1        1.3500    0.2325   -2.1560 H         1 ACP         0.0277
     36 H5'2        2.1267   -1.3683   -2.0444 H         1 ACP         0.0277
     37 H4'         3.8050   -0.1388   -0.4008 H         1 ACP         0.1249
     38 H3'         1.6784   -1.7629    0.2714 H         1 ACP         0.0564
     39 HO3'        2.2232   -1.2979    2.3953 H         1 ACP         0.4511
     40 H2'        -0.0011    0.0027    0.0003 H         1 ACP         0.0716
     41 HO2'       -0.1563   -0.9855    2.0596 H         1 ACP         0.4454
     42 H1'         1.7826    1.9024    1.6451 H         1 ACP         0.1310
     43 H8         -1.4217    1.8638    0.9164 H         1 ACP         0.3565
     44 HN61       -2.4023    5.7711   -1.5477 H         1 ACP         0.4414
     45 HN62       -1.4857    6.9379   -2.4627 H         1 ACP         0.4414
     46 H2          2.8789    5.4660   -2.1503 H         1 ACP         0.0676
     47 H47        -2.4129    3.8706   -0.2402 H         1 ACP         0.5052
@<TRIPOS>BOND
     1    1    2 2
     2    1    3 1
     3    1    4 1
     4    1    8 1
     5    4   32 1
     6    5    6 2
     7    5    7 1
     8    5    8 1
     9    5   12 1
    10    8   33 1
    11    8   34 1
    12    9   10 2
    13    9   11 1
    14    9   12 1
    15    9   13 1
    16   13   14 1
    17   14   15 1
    18   14   35 1
    19   14   36 1
    20   15   16 1
    21   15   17 1
    22   15   37 1
    23   16   21 1
    24   17   18 1
    25   17   19 1
    26   17   38 1
    27   18   39 1
    28   19   20 1
    29   19   21 1
    30   19   40 1
    31   20   41 1
    32   21   22 1
    33   21   42 1
    34   22   23 ar
    35   22   31 ar
    36   23   24 ar
    37   23   43 1
    38   24   25 ar
    39   24   47 1
    40   25   26 ar
    41   25   31 ar
    42   26   27 1
    43   26   28 ar
    44   27   44 1
    45   27   45 1
    46   28   29 ar
    47   29   30 ar
    48   29   46 1
    49   30   31 ar
@<TRIPOS>SUBSTRUCTURE
     1 ACP         1 GROUP 0 A     ****
@<TRIPOS>MOLECULE
[[5-(6-amino-7,8-dihydropurin-8-ylium-9-yl)-3,4-dihydroxy-tetrahydrofuran-2-yl]methoxy-oxido-phosphoryl]oxy-[[hydroxy(oxido)phosphoryl]methyl]phosphinate
   47    49     1     0     0
SMALL
USER_CHARGES

@<TRIPOS>ATOM
      1 PG          2.1988   -4.7529   -3.4704 P.3       1 ACP         1.3755
      2 O1G         0.7932   -4.7690   -4.0245 O.co2     1 ACP        -0.8970
      3 O2G         2.5830   -3.9064   -2.2788 O.co2     1 ACP        -0.8970
      4 O3G         2.7040   -6.2848   -3.2300 O.3       1 ACP        -0.7959
      5 PB          3.2293   -2.7193   -5.7894 P.3       1 ACP         1.5194
      6 O1B         1.8608   -2.6650   -6.4274 O.co2     1 ACP        -0.8958
      7 O2B         4.4994   -2.5848   -6.5976 O.co2     1 ACP        -0.8958
      8 C3B         3.3397   -4.3087   -4.8536 C.3       1 ACP        -0.5612
      9 PA          3.0653   -0.0868   -4.4294 P.3       1 ACP         1.6019
     10 O1A         1.6188    0.2173   -4.7536 O.co2     1 ACP        -0.9040
     11 O2A         4.1847    0.5906   -5.1901 O.co2     1 ACP        -0.9040
     12 O3A         3.2848   -1.7027   -4.5160 O.3       1 ACP        -0.8156
     13 O5'         3.2883    0.1336   -2.8242 O.3       1 ACP        -0.5465
     14 C5'         2.2816   -0.2918   -1.9206 C.3       1 ACP         0.2108
     15 C4'         2.7248    0.0226   -0.4980 C.3       1 ACP         0.0552
     16 O4'         2.4697    1.4219   -0.2462 O.3       1 ACP        -0.3428
     17 C3'         1.9404   -0.7419    0.5596 C.3       1 ACP         0.0750
     18 O3'         2.7418   -0.8086    1.7389 O.3       1 ACP        -0.6066
     19 C2'         0.7477    0.1630    0.7858 C.3       1 ACP         0.1185
     20 O2'         0.1373   -0.0577    2.0407 O.3       1 ACP        -0.5858
     21 C1'         1.3733    1.5427    0.6747 C.3       1 ACP         0.3826
     22 N9          0.4520    2.5240    0.1767 N.pl3     1 ACP        -0.5729
     23 C8         -0.5899    2.3466   -0.6224 C.ar      1 ACP         0.3288
     24 N7         -1.2514    3.4689   -0.8989 N.pl3     1 ACP        -0.5338
     25 C5         -0.5826    4.4323   -0.2272 C.ar      1 ACP        -0.2581
     26 C6         -0.7636    5.7789   -0.1086 C.ar      1 ACP         0.7413
     27 N6         -1.8382    6.3927   -0.7843 N.pl3     1 ACP        -0.9512
     28 N1          0.0741    6.5233    0.6461 N.ar      1 ACP        -0.7699
     29 C2          1.0845    5.8486    1.2626 C.ar      1 ACP         0.6898
     30 N3          1.3516    4.5236    1.2116 N.ar      1 ACP        -0.6800
     31 C4          0.4827    3.8546    0.4481 C.ar      1 ACP         0.6129
     32 HOG3        2.1968   -6.8531   -2.6120 H         1 ACP         0.4199
     33 H3B1        3.2469   -5.1120   -5.5930 H         1 ACP         0.0672
     34 H3B2        4.3563   -4.3533   -4.4476 H         1 ACP         0.0672
     35 H5'1        1.3500    0.2325   -2.1560 H         1 ACP         0.0277
     36 H5'2        2.1267   -1.3683   -2.0444 H         1 ACP         0.0277
     37 H4'         3.8050   -0.1388   -0.4008 H         1 ACP         0.1249
     38 H3'         1.6784   -1.7629    0.2714 H         1 ACP         0.0564
     39 HO3'        2.2232   -1.2979    2.3953 H         1 ACP         0.4511
     40 H2'        -0.0011    0.0027    0.0003 H         1 ACP         0.0716
     41 HO2'       -0.1563   -0.9855    2.0596 H         1 ACP         0.4454
     42 H1'         1.7826    1.9024    1.6451 H         1 ACP         0.1310
     43 H8         -0.8833    1.3888   -1.0158 H         1 ACP         0.3565
     44 HN61       -2.4225    5.8385   -1.3773 H         1 ACP         0.4414
     45 HN62       -1.9421    7.3862   -0.7348 H         1 ACP         0.4414
     46 H2          1.7546    6.4491    1.8670 H         1 ACP         0.0676
     47 H47        -2.0705    3.5612   -1.4834 H         1 ACP         0.5052
@<TRIPOS>BOND
     1    1    2 2
     2    1    3 1
     3    1    4 1
     4    1    8 1
     5    4   32 1
     6    5    6 2
     7    5    7 1
     8    5    8 1
     9    5   12 1
    10    8   33 1
    11    8   34 1
    12    9   10 2
    13    9   11 1
    14    9   12 1
    15    9   13 1
    16   13   14 1
    17   14   15 1
    18   14   35 1
    19   14   36 1
    20   15   16 1
    21   15   17 1
    22   15   37 1
    23   16   21 1
    24   17   18 1
    25   17   19 1
    26   17   38 1
    27   18   39 1
    28   19   20 1
    29   19   21 1
    30   19   40 1
    31   20   41 1
    32   21   22 1
    33   21   42 1
    34   22   23 ar
    35   22   31 ar
    36   23   24 ar
    37   23   43 1
    38   24   25 ar
    39   24   47 1
    40   25   26 ar
    41   25   31 ar
    42   26   27 1
    43   26   28 ar
    44   27   44 1
    45   27   45 1
    46   28   29 ar
    47   29   30 ar
    48   29   46 1
    49   30   31 ar
@<TRIPOS>SUBSTRUCTURE
     1 ACP         1 GROUP 0 A     ****
@<TRIPOS>MOLECULE
[[5-(6-amino-7,8-dihydropurin-8-ylium-9-yl)-3,4-dihydroxy-tetrahydrofuran-2-yl]methoxy-oxido-phosphoryl]oxy-[[hydroxy(oxido)phosphoryl]methyl]phosphinate
   47    49     1     0     0
SMALL
USER_CHARGES

@<TRIPOS>ATOM
      1 PG         -0.6357   -2.0320   -6.0114 P.3       1 ACP         1.3755
      2 O1G        -1.6729   -2.2707   -7.0839 O.co2     1 ACP        -0.8970
      3 O2G        -0.9691   -1.3361   -4.7119 O.co2     1 ACP        -0.8970
      4 O3G         0.1443   -3.4282   -5.6917 O.3       1 ACP        -0.7959
      5 PB          2.2777   -0.5957   -5.8554 P.3       1 ACP         1.5194
      6 O1B         3.1825    0.1241   -6.8279 O.co2     1 ACP        -0.8958
      7 O2B         2.7442   -1.7908   -5.0563 O.co2     1 ACP        -0.8958
      8 C3B         0.7671   -1.1128   -6.7855 C.3       1 ACP        -0.5612
      9 PA          2.2208    1.5499   -3.8060 P.3       1 ACP         1.6019
     10 O1A         1.0984    2.1840   -3.0136 O.co2     1 ACP        -0.9040
     11 O2A         3.2201    2.4089   -4.5502 O.co2     1 ACP        -0.9040
     12 O3A         1.5710    0.4830   -4.8579 O.3       1 ACP        -0.8156
     13 O5'         3.0198    0.5138   -2.8245 O.3       1 ACP        -0.5465
     14 C5'         2.2816   -0.2918   -1.9206 C.3       1 ACP         0.2108
     15 C4'         2.7248    0.0226   -0.4980 C.3       1 ACP         0.0552
     16 O4'         2.4697    1.4219   -0.2462 O.3       1 ACP        -0.3428
     17 C3'         1.9404   -0.7419    0.5596 C.3       1 ACP         0.0750
     18 O3'         2.7418   -0.8086    1.7389 O.3       1 ACP        -0.6066
     19 C2'         0.7477    0.1630    0.7858 C.3       1 ACP         0.1185
     20 O2'         0.1373   -0.0577    2.0407 O.3       1 ACP        -0.5858
     21 C1'         1.3733    1.5427    0.6747 C.3       1 ACP         0.3826
     22 N9          0.4520    2.5240    0.1767 N.pl3     1 ACP        -0.5729
     23 C8         -0.8252    2.3702   -0.1405 C.ar      1 ACP         0.3288
     24 N7         -1.4086    3.4861   -0.5739 N.pl3     1 ACP        -0.5338
     25 C5         -0.4324    4.4197   -0.5299 C.ar      1 ACP        -0.2581
     26 C6         -0.4006    5.7465   -0.8439 C.ar      1 ACP         0.7413
     27 N6         -1.5714    6.3708   -1.3211 N.pl3     1 ACP        -0.9512
     28 N1          0.7370    6.4615   -0.7020 N.ar      1 ACP        -0.7699
     29 C2          1.8196    5.7785   -0.2355 C.ar      1 ACP         0.6898
     30 N3          1.8948    4.4713    0.1036 N.ar      1 ACP        -0.6800
     31 C4          0.7337    3.8311   -0.0629 C.ar      1 ACP         0.6129
     32 HOG3       -0.3786   -4.1930   -5.3697 H         1 ACP         0.4199
     33 H3B1        0.3345   -0.1992   -7.2083 H         1 ACP         0.0672
     34 H3B2        1.1195   -1.7259   -7.6223 H         1 ACP         0.0672
     35 H5'1        1.2153   -0.0781   -2.0454 H         1 ACP         0.0277
     36 H5'2        2.4645   -1.3454   -2.1547 H         1 ACP         0.0277
     37 H4'         3.8050   -0.1388   -0.4008 H         1 ACP         0.1249
     38 H3'         1.6784   -1.7629    0.2714 H         1 ACP         0.0564
     39 HO3'        2.2232   -1.2979    2.3953 H         1 ACP         0.4511
     40 H2'        -0.0011    0.0027    0.0003 H         1 ACP         0.0716
     41 HO2'       -0.1563   -0.9855    2.0596 H         1 ACP         0.4454
     42 H1'         1.7826    1.9024    1.6451 H         1 ACP         0.1310
     43 H8         -1.3516    1.4351   -0.0582 H         1 ACP         0.3565
     44 HN61       -2.3936    5.8204   -1.4664 H         1 ACP         0.4414
     45 HN62       -1.5348    7.3319   -1.5955 H         1 ACP         0.4414
     46 H2          2.7305    6.3553   -0.1232 H         1 ACP         0.0676
     47 H47        -2.3700    3.5931   -0.8665 H         1 ACP         0.5052
@<TRIPOS>BOND
     1    1    2 2
     2    1    3 1
     3    1    4 1
     4    1    8 1
     5    4   32 1
     6    5    6 2
     7    5    7 1
     8    5    8 1
     9    5   12 1
    10    8   33 1
    11    8   34 1
    12    9   10 2
    13    9   11 1
    14    9   12 1
    15    9   13 1
    16   13   14 1
    17   14   15 1
    18   14   35 1
    19   14   36 1
    20   15   16 1
    21   15   17 1
    22   15   37 1
    23   16   21 1
    24   17   18 1
    25   17   19 1
    26   17   38 1
    27   18   39 1
    28   19   20 1
    29   19   21 1
    30   19   40 1
    31   20   41 1
    32   21   22 1
    33   21   42 1
    34   22   23 ar
    35   22   31 ar
    36   23   24 ar
    37   23   43 1
    38   24   25 ar
    39   24   47 1
    40   25   26 ar
    41   25   31 ar
    42   26   27 1
    43   26   28 ar
    44   27   44 1
    45   27   45 1
    46   28   29 ar
    47   29   30 ar
    48   29   46 1
    49   30   31 ar
@<TRIPOS>SUBSTRUCTURE
     1 ACP         1 GROUP 0 A     ****
@<TRIPOS>MOLECULE
[[5-(6-amino-7,8-dihydropurin-8-ylium-9-yl)-3,4-dihydroxy-tetrahydrofuran-2-yl]methoxy-oxido-phosphoryl]oxy-[[hydroxy(oxido)phosphoryl]methyl]phosphinate
   47    49     1     0     0
SMALL
USER_CHARGES

@<TRIPOS>ATOM
      1 PG         -1.1318    0.4553   -5.7381 P.3       1 ACP         1.3755
      2 O1G        -2.5754    0.0822   -5.4937 O.co2     1 ACP        -0.8970
      3 O2G         0.0027   -0.5079   -5.4748 O.co2     1 ACP        -0.8970
      4 O3G        -0.9785    1.0728   -7.2398 O.3       1 ACP        -0.7959
      5 PB          0.8646    2.8320   -4.7682 P.3       1 ACP         1.5194
      6 O1B         0.7488    4.0451   -3.8749 O.co2     1 ACP        -0.8958
      7 O2B         1.3271    2.9314   -6.2036 O.co2     1 ACP        -0.8958
      8 C3B        -0.7825    1.9947   -4.7787 C.3       1 ACP        -0.5612
      9 PA          3.2331    1.6548   -3.4224 P.3       1 ACP         1.6019
     10 O1A         3.3076    2.6238   -2.2625 O.co2     1 ACP        -0.9040
     11 O2A         4.1918    1.7719   -4.5876 O.co2     1 ACP        -0.9040
     12 O3A         1.7074    1.6637   -4.0049 O.3       1 ACP        -0.8156
     13 O5'         3.2883    0.1336   -2.8242 O.3       1 ACP        -0.5465
     14 C5'         2.2816   -0.2918   -1.9206 C.3       1 ACP         0.2108
     15 C4'         2.7248    0.0226   -0.4980 C.3       1 ACP         0.0552
     16 O4'         2.4697    1.4219   -0.2462 O.3       1 ACP        -0.3428
     17 C3'         1.9404   -0.7419    0.5596 C.3       1 ACP         0.0750
     18 O3'         2.7418   -0.8086    1.7389 O.3       1 ACP        -0.6066
     19 C2'         0.7477    0.1630    0.7858 C.3       1 ACP         0.1185
     20 O2'         0.1373   -0.0577    2.0407 O.3       1 ACP        -0.5858
     21 C1'         1.3733    1.5427    0.6747 C.3       1 ACP         0.3826
     22 N9          0.4520    2.5240    0.1767 N.pl3     1 ACP        -0.5729
     23 C8         -0.2172    2.5216   -0.9668 C.ar      1 ACP         0.3288
     24 N7         -1.0011    3.5855   -1.1321 N.pl3     1 ACP        -0.5338
     25 C5         -0.8184    4.3200   -0.0123 C.ar      1 ACP        -0.2581
     26 C6         -1.3349    5.5079    0.4144 C.ar      1 ACP         0.7413
     27 N6         -2.2567    6.1930   -0.4036 N.pl3     1 ACP        -0.9512
     28 N1         -0.9716    6.0291    1.6069 N.ar      1 ACP        -0.7699
     29 C2         -0.0765    5.3009    2.3312 C.ar      1 ACP         0.6898
     30 N3          0.4933    4.1191    2.0023 N.ar      1 ACP        -0.6800
     31 C4          0.0865    3.6675    0.8123 C.ar      1 ACP         0.6129
     32 HOG3       -1.2254    0.5101   -8.0044 H         1 ACP         0.4199
     33 H3B1       -1.0195    1.7616   -3.7346 H         1 ACP         0.0672
     34 H3B2       -1.5041    2.7459   -5.1184 H         1 ACP         0.0672
     35 H5'1        1.3500    0.2325   -2.1560 H         1 ACP         0.0277
     36 H5'2        2.1267   -1.3683   -2.0444 H         1 ACP         0.0277
     37 H4'         3.8050   -0.1388   -0.4008 H         1 ACP         0.1249
     38 H3'         1.6784   -1.7629    0.2714 H         1 ACP         0.0564
     39 HO3'        2.2232   -1.2979    2.3953 H         1 ACP         0.4511
     40 H2'        -0.0011    0.0027    0.0003 H         1 ACP         0.0716
     41 HO2'       -0.6141    0.5574    2.1082 H         1 ACP         0.4454
     42 H1'         1.7826    1.9024    1.6451 H         1 ACP         0.1310
     43 H8         -0.1423    1.7373   -1.6999 H         1 ACP         0.3565
     44 HN61       -2.4811    5.8206   -1.3042 H         1 ACP         0.4414
     45 HN62       -2.5986    7.0863   -0.1113 H         1 ACP         0.4414
     46 H2          0.2128    5.7222    3.2871 H         1 ACP         0.0676
     47 H47        -1.5947    3.7835   -1.9255 H         1 ACP         0.5052
@<TRIPOS>BOND
     1    1    2 2
     2    1    3 1
     3    1    4 1
     4    1    8 1
     5    4   32 1
     6    5    6 2
     7    5    7 1
     8    5    8 1
     9    5   12 1
    10    8   33 1
    11    8   34 1
    12    9   10 2
    13    9   11 1
    14    9   12 1
    15    9   13 1
    16   13   14 1
    17   14   15 1
    18   14   35 1
    19   14   36 1
    20   15   16 1
    21   15   17 1
    22   15   37 1
    23   16   21 1
    24   17   18 1
    25   17   19 1
    26   17   38 1
    27   18   39 1
    28   19   20 1
    29   19   21 1
    30   19   40 1
    31   20   41 1
    32   21   22 1
    33   21   42 1
    34   22   23 ar
    35   22   31 ar
    36   23   24 ar
    37   23   43 1
    38   24   25 ar
    39   24   47 1
    40   25   26 ar
    41   25   31 ar
    42   26   27 1
    43   26   28 ar
    44   27   44 1
    45   27   45 1
    46   28   29 ar
    47   29   30 ar
    48   29   46 1
    49   30   31 ar
@<TRIPOS>SUBSTRUCTURE
     1 ACP         1 GROUP 0 A     ****
@<TRIPOS>MOLECULE
[[5-(6-amino-7,8-dihydropurin-8-ylium-9-yl)-3,4-dihydroxy-tetrahydrofuran-2-yl]methoxy-oxido-phosphoryl]oxy-[[hydroxy(oxido)phosphoryl]methyl]phosphinate
   47    49     1     0     0
SMALL
USER_CHARGES

@<TRIPOS>ATOM
      1 PG          7.3655   -2.5016   -2.4314 P.3       1 ACP         1.3755
      2 O1G         7.7848   -3.6162   -1.5016 O.co2     1 ACP        -0.8970
      3 O2G         6.8310   -1.1847   -1.9174 O.co2     1 ACP        -0.8970
      4 O3G         8.5568   -2.2174   -3.5085 O.3       1 ACP        -0.7959
      5 PB          5.3023   -2.1900   -4.9258 P.3       1 ACP         1.5194
      6 O1B         4.3452   -3.1009   -5.6584 O.co2     1 ACP        -0.8958
      7 O2B         6.3947   -1.4286   -5.6409 O.co2     1 ACP        -0.8958
      8 C3B         6.1089   -3.1897   -3.5975 C.3       1 ACP        -0.5612
      9 PA          3.3324   -0.0529   -4.3266 P.3       1 ACP         1.6019
     10 O1A         2.0985   -0.7700   -4.8296 O.co2     1 ACP        -0.9040
     11 O2A         3.9793    1.0390   -5.1511 O.co2     1 ACP        -0.9040
     12 O3A         4.4675   -1.1702   -3.9660 O.3       1 ACP        -0.8156
     13 O5'         3.0198    0.5138   -2.8245 O.3       1 ACP        -0.5465
     14 C5'         2.2816   -0.2918   -1.9206 C.3       1 ACP         0.2108
     15 C4'         2.7248    0.0226   -0.4980 C.3       1 ACP         0.0552
     16 O4'         2.4697    1.4219   -0.2462 O.3       1 ACP        -0.3428
     17 C3'         1.9404   -0.7419    0.5596 C.3       1 ACP         0.0750
     18 O3'         2.7418   -0.8086    1.7389 O.3       1 ACP        -0.6066
     19 C2'         0.7477    0.1630    0.7858 C.3       1 ACP         0.1185
     20 O2'         0.1373   -0.0577    2.0407 O.3       1 ACP        -0.5858
     21 C1'         1.3733    1.5427    0.6747 C.3       1 ACP         0.3826
     22 N9          0.4520    2.5240    0.1767 N.pl3     1 ACP        -0.5729
     23 C8         -0.3477    3.3274    0.8626 C.ar      1 ACP         0.3288
     24 N7         -1.0836    4.1323    0.0983 N.pl3     1 ACP        -0.5338
     25 C5         -0.7273    3.8194   -1.1674 C.ar      1 ACP        -0.2581
     26 C6         -1.1208    4.2877   -2.3863 C.ar      1 ACP         0.7413
     27 N6         -2.0932    5.3066   -2.4528 N.pl3     1 ACP        -0.9512
     28 N1         -0.5892    3.7853   -3.5223 N.ar      1 ACP        -0.7699
     29 C2          0.3427    2.8040   -3.3648 C.ar      1 ACP         0.6898
     30 N3          0.8012    2.2709   -2.2093 N.ar      1 ACP        -0.6800
     31 C4          0.2307    2.8167   -1.1312 C.ar      1 ACP         0.6129
     32 HOG3        9.4370   -1.9457   -3.1715 H         1 ACP         0.4199
     33 H3B1        5.3008   -3.5864   -2.9730 H         1 ACP         0.0672
     34 H3B2        6.5815   -4.0404   -4.1009 H         1 ACP         0.0672
     35 H5'1        1.2153   -0.0781   -2.0454 H         1 ACP         0.0277
     36 H5'2        2.4645   -1.3454   -2.1547 H         1 ACP         0.0277
     37 H4'         3.8050   -0.1388   -0.4008 H         1 ACP         0.1249
     38 H3'         1.6784   -1.7629    0.2714 H         1 ACP         0.0564
     39 HO3'        2.2232   -1.2979    2.3953 H         1 ACP         0.4511
     40 H2'        -0.0011    0.0027    0.0003 H         1 ACP         0.0716
     41 HO2'       -0.6141    0.5574    2.1082 H         1 ACP         0.4454
     42 H1'         1.7826    1.9024    1.6451 H         1 ACP         0.1310
     43 H8         -0.4040    3.3373    1.9373 H         1 ACP         0.3565
     44 HN61       -2.5133    5.6366   -1.6073 H         1 ACP         0.4414
     45 HN62       -2.4153    5.6161   -3.3477 H         1 ACP         0.4414
     46 H2          0.7668    2.4032   -4.2782 H         1 ACP         0.0676
     47 H47        -1.7549    4.8194    0.4122 H         1 ACP         0.5052
@<TRIPOS>BOND
     1    1    2 2
     2    1    3 1
     3    1    4 1
     4    1    8 1
     5    4   32 1
     6    5    6 2
     7    5    7 1
     8    5    8 1
     9    5   12 1
    10    8   33 1
    11    8   34 1
    12    9   10 2
    13    9   11 1
    14    9   12 1
    15    9   13 1
    16   13   14 1
    17   14   15 1
    18   14   35 1
    19   14   36 1
    20   15   16 1
    21   15   17 1
    22   15   37 1
    23   16   21 1
    24   17   18 1
    25   17   19 1
    26   17   38 1
    27   18   39 1
    28   19   20 1
    29   19   21 1
    30   19   40 1
    31   20   41 1
    32   21   22 1
    33   21   42 1
    34   22   23 ar
    35   22   31 ar
    36   23   24 ar
    37   23   43 1
    38   24   25 ar
    39   24   47 1
    40   25   26 ar
    41   25   31 ar
    42   26   27 1
    43   26   28 ar
    44   27   44 1
    45   27   45 1
    46   28   29 ar
    47   29   30 ar
    48   29   46 1
    49   30   31 ar
@<TRIPOS>SUBSTRUCTURE
     1 ACP         1 GROUP 0 A     ****
@<TRIPOS>MOLECULE
[[5-(6-amino-7,8-dihydropurin-8-ylium-9-yl)-3,4-dihydroxy-tetrahydrofuran-2-yl]methoxy-oxido-phosphoryl]oxy-[[hydroxy(oxido)phosphoryl]methyl]phosphinate
   47    49     1     0     0
SMALL
USER_CHARGES

@<TRIPOS>ATOM
      1 PG          4.4673   -0.9070   -6.7860 P.3       1 ACP         1.3755
      2 O1G         4.8691   -2.2806   -7.2702 O.co2     1 ACP        -0.8970
      3 O2G         4.8115   -0.4109   -5.4005 O.co2     1 ACP        -0.8970
      4 O3G         4.9183    0.2088   -7.8866 O.3       1 ACP        -0.7959
      5 PB          1.4292   -1.8769   -6.1501 P.3       1 ACP         1.5194
      6 O1B         1.7224   -3.2845   -6.6140 O.co2     1 ACP        -0.8958
      7 O2B         0.0612   -1.2507   -6.2951 O.co2     1 ACP        -0.8958
      8 C3B         2.6372   -0.7568   -6.9869 C.3       1 ACP        -0.5612
      9 PA          1.5537   -2.4539   -3.2418 P.3       1 ACP         1.6019
     10 O1A         2.0300   -3.8868   -3.3414 O.co2     1 ACP        -0.9040
     11 O2A         0.1072   -2.1427   -2.9238 O.co2     1 ACP        -0.9040
     12 O3A         1.9587   -1.6787   -4.6209 O.3       1 ACP        -0.8156
     13 O5'         2.5237   -1.6631   -2.1889 O.3       1 ACP        -0.5465
     14 C5'         2.2816   -0.2918   -1.9206 C.3       1 ACP         0.2108
     15 C4'         2.7248    0.0226   -0.4980 C.3       1 ACP         0.0552
     16 O4'         2.4697    1.4219   -0.2462 O.3       1 ACP        -0.3428
     17 C3'         1.9404   -0.7419    0.5596 C.3       1 ACP         0.0750
     18 O3'         2.7418   -0.8086    1.7389 O.3       1 ACP        -0.6066
     19 C2'         0.7477    0.1630    0.7858 C.3       1 ACP         0.1185
     20 O2'         0.1373   -0.0577    2.0407 O.3       1 ACP        -0.5858
     21 C1'         1.3733    1.5427    0.6747 C.3       1 ACP         0.3826
     22 N9          0.4520    2.5240    0.1767 N.pl3     1 ACP        -0.5729
     23 C8         -0.3477    3.3274    0.8626 C.ar      1 ACP         0.3288
     24 N7         -1.0836    4.1323    0.0983 N.pl3     1 ACP        -0.5338
     25 C5         -0.7273    3.8194   -1.1674 C.ar      1 ACP        -0.2581
     26 C6         -1.1208    4.2877   -2.3863 C.ar      1 ACP         0.7413
     27 N6         -2.0932    5.3066   -2.4528 N.pl3     1 ACP        -0.9512
     28 N1         -0.5892    3.7853   -3.5223 N.ar      1 ACP        -0.7699
     29 C2          0.3427    2.8040   -3.3648 C.ar      1 ACP         0.6898
     30 N3          0.8012    2.2709   -2.2093 N.ar      1 ACP        -0.6800
     31 C4          0.2307    2.8167   -1.1312 C.ar      1 ACP         0.6129
     32 HOG3        5.8704    0.2892   -8.1082 H         1 ACP         0.4199
     33 H3B1        2.4426   -0.8373   -8.0622 H         1 ACP         0.0672
     34 H3B2        2.3711    0.2612   -6.6813 H         1 ACP         0.0672
     35 H5'1        2.8429    0.3140   -2.6391 H         1 ACP         0.0277
     36 H5'2        1.2125   -0.0906   -2.0420 H         1 ACP         0.0277
     37 H4'         3.8050   -0.1388   -0.4008 H         1 ACP         0.1249
     38 H3'         1.6784   -1.7629    0.2714 H         1 ACP         0.0564
     39 HO3'        2.2232   -1.2979    2.3953 H         1 ACP         0.4511
     40 H2'        -0.0011    0.0027    0.0003 H         1 ACP         0.0716
     41 HO2'       -0.6141    0.5574    2.1082 H         1 ACP         0.4454
     42 H1'         1.7826    1.9024    1.6451 H         1 ACP         0.1310
     43 H8         -0.4040    3.3373    1.9373 H         1 ACP         0.3565
     44 HN61       -2.5133    5.6366   -1.6073 H         1 ACP         0.4414
     45 HN62       -2.4153    5.6161   -3.3477 H         1 ACP         0.4414
     46 H2          0.7668    2.4032   -4.2782 H         1 ACP         0.0676
     47 H47        -1.7549    4.8194    0.4122 H         1 ACP         0.5052
@<TRIPOS>BOND
     1    1    2 2
     2    1    3 1
     3    1    4 1
     4    1    8 1
     5    4   32 1
     6    5    6 2
     7    5    7 1
     8    5    8 1
     9    5   12 1
    10    8   33 1
    11    8   34 1
    12    9   10 2
    13    9   11 1
    14    9   12 1
    15    9   13 1
    16   13   14 1
    17   14   15 1
    18   14   35 1
    19   14   36 1
    20   15   16 1
    21   15   17 1
    22   15   37 1
    23   16   21 1
    24   17   18 1
    25   17   19 1
    26   17   38 1
    27   18   39 1
    28   19   20 1
    29   19   21 1
    30   19   40 1
    31   20   41 1
    32   21   22 1
    33   21   42 1
    34   22   23 ar
    35   22   31 ar
    36   23   24 ar
    37   23   43 1
    38   24   25 ar
    39   24   47 1
    40   25   26 ar
    41   25   31 ar
    42   26   27 1
    43   26   28 ar
    44   27   44 1
    45   27   45 1
    46   28   29 ar
    47   29   30 ar
    48   29   46 1
    49   30   31 ar
@<TRIPOS>SUBSTRUCTURE
     1 ACP         1 GROUP 0 A     ****
@<TRIPOS>MOLECULE
[[5-(6-amino-7,8-dihydropurin-8-ylium-9-yl)-3,4-dihydroxy-tetrahydrofuran-2-yl]methoxy-oxido-phosphoryl]oxy-[[hydroxy(oxido)phosphoryl]methyl]phosphinate
   47    49     1     0     0
SMALL
USER_CHARGES

@<TRIPOS>ATOM
      1 PG          6.2712   -2.5261   -4.7346 P.3       1 ACP         1.3755
      2 O1G         6.3055   -4.0214   -4.9482 O.co2     1 ACP        -0.8970
      3 O2G         5.9909   -1.9140   -3.3815 O.co2     1 ACP        -0.8970
      4 O3G         7.6212   -1.8583   -5.3603 O.3       1 ACP        -0.7959
      5 PB          3.2607   -2.2915   -5.9419 P.3       1 ACP         1.5194
      6 O1B         3.1890   -3.7783   -6.2006 O.co2     1 ACP        -0.8958
      7 O2B         2.5397   -1.2879   -6.8121 O.co2     1 ACP        -0.8958
      8 C3B         5.0471   -1.8197   -5.9241 C.3       1 ACP        -0.5612
      9 PA          1.5993   -2.3027   -3.4829 P.3       1 ACP         1.6019
     10 O1A         1.4644   -3.8029   -3.3383 O.co2     1 ACP        -0.9040
     11 O2A         0.4539   -1.4742   -4.0233 O.co2     1 ACP        -0.9040
     12 O3A         2.9310   -1.9881   -4.3743 O.3       1 ACP        -0.8156
     13 O5'         2.0818   -1.6902   -2.0452 O.3       1 ACP        -0.5465
     14 C5'         2.2816   -0.2918   -1.9206 C.3       1 ACP         0.2108
     15 C4'         2.7248    0.0226   -0.4980 C.3       1 ACP         0.0552
     16 O4'         2.4697    1.4219   -0.2462 O.3       1 ACP        -0.3428
     17 C3'         1.9404   -0.7419    0.5596 C.3       1 ACP         0.0750
     18 O3'         2.7418   -0.8086    1.7389 O.3       1 ACP        -0.6066
     19 C2'         0.7477    0.1630    0.7858 C.3       1 ACP         0.1185
     20 O2'         0.1373   -0.0577    2.0407 O.3       1 ACP        -0.5858
     21 C1'         1.3733    1.5427    0.6747 C.3       1 ACP         0.3826
     22 N9          0.4520    2.5240    0.1767 N.pl3     1 ACP        -0.5729
     23 C8          0.5305    3.2394   -0.9358 C.ar      1 ACP         0.3288
     24 N7         -0.4966    4.0680   -1.1145 N.pl3     1 ACP        -0.5338
     25 C5         -1.2879    3.8664   -0.0375 C.ar      1 ACP        -0.2581
     26 C6         -2.4754    4.4084    0.3577 C.ar      1 ACP         0.7413
     27 N6         -3.0892    5.3882   -0.4495 N.pl3     1 ACP        -0.9512
     28 N1         -3.0632    4.0158    1.5092 N.ar      1 ACP        -0.7699
     29 C2         -2.4008    3.0654    2.2262 C.ar      1 ACP         0.6898
     30 N3         -1.2259    2.4663    1.9260 N.ar      1 ACP        -0.6800
     31 C4         -0.7062    2.9047    0.7757 C.ar      1 ACP         0.6129
     32 HOG3        8.4908   -2.1426   -5.0067 H         1 ACP         0.4199
     33 H3B1        5.4363   -2.0376   -6.9249 H         1 ACP         0.0672
     34 H3B2        5.0738   -0.7323   -5.7920 H         1 ACP         0.0672
     35 H5'1        3.0467    0.0218   -2.6379 H         1 ACP         0.0277
     36 H5'2        1.3432    0.2220   -2.1518 H         1 ACP         0.0277
     37 H4'         3.8050   -0.1388   -0.4008 H         1 ACP         0.1249
     38 H3'         1.6784   -1.7629    0.2714 H         1 ACP         0.0564
     39 HO3'        2.2232   -1.2979    2.3953 H         1 ACP         0.4511
     40 H2'        -0.0011    0.0027    0.0003 H         1 ACP         0.0716
     41 HO2'       -0.1563   -0.9855    2.0596 H         1 ACP         0.4454
     42 H1'         1.7826    1.9024    1.6451 H         1 ACP         0.1310
     43 H8          1.3437    3.1645   -1.6367 H         1 ACP         0.3565
     44 HN61       -2.6210    5.7042   -1.2748 H         1 ACP         0.4414
     45 HN62       -3.9356    5.8187   -0.1356 H         1 ACP         0.4414
     46 H2         -2.8752    2.7532    3.1495 H         1 ACP         0.0676
     47 H47        -0.6372    4.7004   -1.8900 H         1 ACP         0.5052
@<TRIPOS>BOND
     1    1    2 2
     2    1    3 1
     3    1    4 1
     4    1    8 1
     5    4   32 1
     6    5    6 2
     7    5    7 1
     8    5    8 1
     9    5   12 1
    10    8   33 1
    11    8   34 1
    12    9   10 2
    13    9   11 1
    14    9   12 1
    15    9   13 1
    16   13   14 1
    17   14   15 1
    18   14   35 1
    19   14   36 1
    20   15   16 1
    21   15   17 1
    22   15   37 1
    23   16   21 1
    24   17   18 1
    25   17   19 1
    26   17   38 1
    27   18   39 1
    28   19   20 1
    29   19   21 1
    30   19   40 1
    31   20   41 1
    32   21   22 1
    33   21   42 1
    34   22   23 ar
    35   22   31 ar
    36   23   24 ar
    37   23   43 1
    38   24   25 ar
    39   24   47 1
    40   25   26 ar
    41   25   31 ar
    42   26   27 1
    43   26   28 ar
    44   27   44 1
    45   27   45 1
    46   28   29 ar
    47   29   30 ar
    48   29   46 1
    49   30   31 ar
@<TRIPOS>SUBSTRUCTURE
     1 ACP         1 GROUP 0 A     ****
@<TRIPOS>MOLECULE
[[5-(6-amino-7,8-dihydropurin-8-ylium-9-yl)-3,4-dihydroxy-tetrahydrofuran-2-yl]methoxy-oxido-phosphoryl]oxy-[[hydroxy(oxido)phosphoryl]methyl]phosphinate
   47    49     1     0     0
SMALL
USER_CHARGES

@<TRIPOS>ATOM
      1 PG          7.5093   -1.1511   -2.7925 P.3       1 ACP         1.3755
      2 O1G         6.4336   -1.1394   -1.7316 O.co2     1 ACP        -0.8970
      3 O2G         8.8220   -0.4237   -2.6138 O.co2     1 ACP        -0.8970
      4 O3G         7.8020   -2.6888   -3.2504 O.3       1 ACP        -0.7959
      5 PB          5.3244   -1.3769   -5.1905 P.3       1 ACP         1.5194
      6 O1B         5.7568   -2.7849   -5.5268 O.co2     1 ACP        -0.8958
      7 O2B         4.7951   -0.4259   -6.2392 O.co2     1 ACP        -0.8958
      8 C3B         6.7513   -0.5436   -4.3636 C.3       1 ACP        -0.5612
      9 PA          2.8591   -2.1299   -3.7201 P.3       1 ACP         1.6019
     10 O1A         3.0727   -3.6280   -3.7234 O.co2     1 ACP        -0.9040
     11 O2A         1.8686   -1.4903   -4.6689 O.co2     1 ACP        -0.9040
     12 O3A         4.3077   -1.4018   -3.9162 O.3       1 ACP        -0.8156
     13 O5'         2.5237   -1.6631   -2.1889 O.3       1 ACP        -0.5465
     14 C5'         2.2816   -0.2918   -1.9206 C.3       1 ACP         0.2108
     15 C4'         2.7248    0.0226   -0.4980 C.3       1 ACP         0.0552
     16 O4'         2.4697    1.4219   -0.2462 O.3       1 ACP        -0.3428
     17 C3'         1.9404   -0.7419    0.5596 C.3       1 ACP         0.0750
     18 O3'         2.7418   -0.8086    1.7389 O.3       1 ACP        -0.6066
     19 C2'         0.7477    0.1630    0.7858 C.3       1 ACP         0.1185
     20 O2'         0.1373   -0.0577    2.0407 O.3       1 ACP        -0.5858
     21 C1'         1.3733    1.5427    0.6747 C.3       1 ACP         0.3826
     22 N9          0.4520    2.5240    0.1767 N.pl3     1 ACP        -0.5729
     23 C8         -0.8602    2.5861    0.3496 C.ar      1 ACP         0.3288
     24 N7         -1.4308    3.6326   -0.2443 N.pl3     1 ACP        -0.5338
     25 C5         -0.4080    4.2856   -0.8394 C.ar      1 ACP        -0.2581
     26 C6         -0.3432    5.4196   -1.5943 C.ar      1 ACP         0.7413
     27 N6         -1.5276    6.1333   -1.8702 N.pl3     1 ACP        -0.9512
     28 N1          0.8395    5.8603   -2.0764 N.ar      1 ACP        -0.7699
     29 C2          1.9319    5.1095   -1.7617 C.ar      1 ACP         0.6898
     30 N3          1.9773    3.9761   -1.0249 N.ar      1 ACP        -0.6800
     31 C4          0.7724    3.6031   -0.5836 C.ar      1 ACP         0.6129
     32 HOG3        8.1101   -3.3280   -2.5731 H         1 ACP         0.4199
     33 H3B1        7.5625   -0.5129   -5.0996 H         1 ACP         0.0672
     34 H3B2        6.4363    0.4896   -4.1803 H         1 ACP         0.0672
     35 H5'1        2.8429    0.3140   -2.6391 H         1 ACP         0.0277
     36 H5'2        1.2125   -0.0906   -2.0420 H         1 ACP         0.0277
     37 H4'         3.8050   -0.1388   -0.4008 H         1 ACP         0.1249
     38 H3'         1.6784   -1.7629    0.2714 H         1 ACP         0.0564
     39 HO3'        3.5554   -1.2733    1.4914 H         1 ACP         0.4511
     40 H2'        -0.0011    0.0027    0.0003 H         1 ACP         0.0716
     41 HO2'        0.8082    0.1199    2.7232 H         1 ACP         0.4454
     42 H1'         1.7826    1.9024    1.6451 H         1 ACP         0.1310
     43 H8         -1.4217    1.8638    0.9164 H         1 ACP         0.3565
     44 HN61       -2.4023    5.7711   -1.5477 H         1 ACP         0.4414
     45 HN62       -1.4857    6.9379   -2.4627 H         1 ACP         0.4414
     46 H2          2.8789    5.4660   -2.1503 H         1 ACP         0.0676
     47 H47        -2.4129    3.8706   -0.2402 H         1 ACP         0.5052
@<TRIPOS>BOND
     1    1    2 2
     2    1    3 1
     3    1    4 1
     4    1    8 1
     5    4   32 1
     6    5    6 2
     7    5    7 1
     8    5    8 1
     9    5   12 1
    10    8   33 1
    11    8   34 1
    12    9   10 2
    13    9   11 1
    14    9   12 1
    15    9   13 1
    16   13   14 1
    17   14   15 1
    18   14   35 1
    19   14   36 1
    20   15   16 1
    21   15   17 1
    22   15   37 1
    23   16   21 1
    24   17   18 1
    25   17   19 1
    26   17   38 1
    27   18   39 1
    28   19   20 1
    29   19   21 1
    30   19   40 1
    31   20   41 1
    32   21   22 1
    33   21   42 1
    34   22   23 ar
    35   22   31 ar
    36   23   24 ar
    37   23   43 1
    38   24   25 ar
    39   24   47 1
    40   25   26 ar
    41   25   31 ar
    42   26   27 1
    43   26   28 ar
    44   27   44 1
    45   27   45 1
    46   28   29 ar
    47   29   30 ar
    48   29   46 1
    49   30   31 ar
@<TRIPOS>SUBSTRUCTURE
     1 ACP         1 GROUP 0 A     ****
@<TRIPOS>MOLECULE
[[5-(6-amino-7,8-dihydropurin-8-ylium-9-yl)-3,4-dihydroxy-tetrahydrofuran-2-yl]methoxy-oxido-phosphoryl]oxy-[[hydroxy(oxido)phosphoryl]methyl]phosphinate
   47    49     1     0     0
SMALL
USER_CHARGES

@<TRIPOS>ATOM
      1 PG          2.7892    0.3632   -7.1730 P.3       1 ACP         1.3755
      2 O1G         2.8868    0.2107   -8.6730 O.co2     1 ACP        -0.8970
      3 O2G         3.0950   -0.7760   -6.2280 O.co2     1 ACP        -0.8970
      4 O3G         3.6186    1.6882   -6.7079 O.3       1 ACP        -0.7959
      5 PB          0.4978    1.2961   -5.0624 P.3       1 ACP         1.5194
      6 O1B        -0.9348    1.7663   -5.1587 O.co2     1 ACP        -0.8958
      7 O2B         1.5672    2.1111   -4.3720 O.co2     1 ACP        -0.8958
      8 C3B         1.0862    0.9624   -6.7819 C.3       1 ACP        -0.5612
      9 PA          0.0015   -0.8796   -3.1063 P.3       1 ACP         1.6019
     10 O1A         0.4516   -2.3228   -3.0389 O.co2     1 ACP        -0.9040
     11 O2A        -1.4592   -0.5192   -2.9424 O.co2     1 ACP        -0.9040
     12 O3A         0.5391   -0.2364   -4.5078 O.3       1 ACP        -0.8156
     13 O5'         0.8970   -0.0132   -2.0468 O.3       1 ACP        -0.5465
     14 C5'         2.2816   -0.2918   -1.9206 C.3       1 ACP         0.2108
     15 C4'         2.7248    0.0226   -0.4980 C.3       1 ACP         0.0552
     16 O4'         2.4697    1.4219   -0.2462 O.3       1 ACP        -0.3428
     17 C3'         1.9404   -0.7419    0.5596 C.3       1 ACP         0.0750
     18 O3'         2.7418   -0.8086    1.7389 O.3       1 ACP        -0.6066
     19 C2'         0.7477    0.1630    0.7858 C.3       1 ACP         0.1185
     20 O2'         0.1373   -0.0577    2.0407 O.3       1 ACP        -0.5858
     21 C1'         1.3733    1.5427    0.6747 C.3       1 ACP         0.3826
     22 N9          0.4520    2.5240    0.1767 N.pl3     1 ACP        -0.5729
     23 C8          0.1928    2.8484   -1.0815 C.ar      1 ACP         0.3288
     24 N7         -0.7248    3.8048   -1.2110 N.pl3     1 ACP        -0.5338
     25 C5         -1.0765    4.1129    0.0571 C.ar      1 ACP        -0.2581
     26 C6         -1.9614    5.0063    0.5851 C.ar      1 ACP         0.7413
     27 N6         -2.7145    5.8254   -0.2810 N.pl3     1 ACP        -0.9512
     28 N1         -2.1199    5.1113    1.9228 N.ar      1 ACP        -0.7699
     29 C2         -1.3522    4.2822    2.6839 C.ar      1 ACP         0.6898
     30 N3         -0.4501    3.3660    2.2638 N.ar      1 ACP        -0.6800
     31 C4         -0.3487    3.3198    0.9322 C.ar      1 ACP         0.6129
     32 HOG3        4.5790    1.7311   -6.9028 H         1 ACP         0.4199
     33 H3B1        0.3992    0.2226   -7.2075 H         1 ACP         0.0672
     34 H3B2        0.9474    1.8962   -7.3380 H         1 ACP         0.0672
     35 H5'1        2.4525   -1.3484   -2.1500 H         1 ACP         0.0277
     36 H5'2        2.8335    0.3232   -2.6384 H         1 ACP         0.0277
     37 H4'         3.8050   -0.1388   -0.4008 H         1 ACP         0.1249
     38 H3'         1.6784   -1.7629    0.2714 H         1 ACP         0.0564
     39 HO3'        2.2232   -1.2979    2.3953 H         1 ACP         0.4511
     40 H2'        -0.0011    0.0027    0.0003 H         1 ACP         0.0716
     41 HO2'       -0.6141    0.5574    2.1082 H         1 ACP         0.4454
     42 H1'         1.7826    1.9024    1.6451 H         1 ACP         0.1310
     43 H8          0.6728    2.3873   -1.9272 H         1 ACP         0.3565
     44 HN61       -2.5537    5.7714   -1.2667 H         1 ACP         0.4414
     45 HN62       -3.3283    6.5126    0.1080 H         1 ACP         0.4414
     46 H2         -1.4818    4.3694    3.7565 H         1 ACP         0.0676
     47 H47        -1.0701    4.2005   -2.0743 H         1 ACP         0.5052
@<TRIPOS>BOND
     1    1    2 2
     2    1    3 1
     3    1    4 1
     4    1    8 1
     5    4   32 1
     6    5    6 2
     7    5    7 1
     8    5    8 1
     9    5   12 1
    10    8   33 1
    11    8   34 1
    12    9   10 2
    13    9   11 1
    14    9   12 1
    15    9   13 1
    16   13   14 1
    17   14   15 1
    18   14   35 1
    19   14   36 1
    20   15   16 1
    21   15   17 1
    22   15   37 1
    23   16   21 1
    24   17   18 1
    25   17   19 1
    26   17   38 1
    27   18   39 1
    28   19   20 1
    29   19   21 1
    30   19   40 1
    31   20   41 1
    32   21   22 1
    33   21   42 1
    34   22   23 ar
    35   22   31 ar
    36   23   24 ar
    37   23   43 1
    38   24   25 ar
    39   24   47 1
    40   25   26 ar
    41   25   31 ar
    42   26   27 1
    43   26   28 ar
    44   27   44 1
    45   27   45 1
    46   28   29 ar
    47   29   30 ar
    48   29   46 1
    49   30   31 ar
@<TRIPOS>SUBSTRUCTURE
     1 ACP         1 GROUP 0 A     ****
@<TRIPOS>MOLECULE
[[5-(6-amino-7,8-dihydropurin-8-ylium-9-yl)-3,4-dihydroxy-tetrahydrofuran-2-yl]methoxy-oxido-phosphoryl]oxy-[[hydroxy(oxido)phosphoryl]methyl]phosphinate
   47    49     1     0     0
SMALL
USER_CHARGES

@<TRIPOS>ATOM
      1 PG          4.8366   -4.8236   -3.9017 P.3       1 ACP         1.3755
      2 O1G         4.5430   -6.1696   -3.2811 O.co2     1 ACP        -0.8970
      3 O2G         5.2767   -3.6368   -3.0758 O.co2     1 ACP        -0.8970
      4 O3G         5.8598   -5.0173   -5.1568 O.3       1 ACP        -0.7959
      5 PB          3.2293   -2.7193   -5.7894 P.3       1 ACP         1.5194
      6 O1B         1.8608   -2.6650   -6.4274 O.co2     1 ACP        -0.8958
      7 O2B         4.4994   -2.5848   -6.5976 O.co2     1 ACP        -0.8958
      8 C3B         3.3397   -4.3087   -4.8536 C.3       1 ACP        -0.5612
      9 PA          3.0653   -0.0868   -4.4294 P.3       1 ACP         1.6019
     10 O1A         1.6188    0.2173   -4.7536 O.co2     1 ACP        -0.9040
     11 O2A         4.1847    0.5906   -5.1901 O.co2     1 ACP        -0.9040
     12 O3A         3.2848   -1.7027   -4.5160 O.3       1 ACP        -0.8156
     13 O5'         3.2883    0.1336   -2.8242 O.3       1 ACP        -0.5465
     14 C5'         2.2816   -0.2918   -1.9206 C.3       1 ACP         0.2108
     15 C4'         2.7248    0.0226   -0.4980 C.3       1 ACP         0.0552
     16 O4'         2.4697    1.4219   -0.2462 O.3       1 ACP        -0.3428
     17 C3'         1.9404   -0.7419    0.5596 C.3       1 ACP         0.0750
     18 O3'         2.7418   -0.8086    1.7389 O.3       1 ACP        -0.6066
     19 C2'         0.7477    0.1630    0.7858 C.3       1 ACP         0.1185
     20 O2'         0.1373   -0.0577    2.0407 O.3       1 ACP        -0.5858
     21 C1'         1.3733    1.5427    0.6747 C.3       1 ACP         0.3826
     22 N9          0.4520    2.5240    0.1767 N.pl3     1 ACP        -0.5729
     23 C8         -0.8252    2.3702   -0.1405 C.ar      1 ACP         0.3288
     24 N7         -1.4086    3.4861   -0.5739 N.pl3     1 ACP        -0.5338
     25 C5         -0.4324    4.4197   -0.5299 C.ar      1 ACP        -0.2581
     26 C6         -0.4006    5.7465   -0.8439 C.ar      1 ACP         0.7413
     27 N6         -1.5714    6.3708   -1.3211 N.pl3     1 ACP        -0.9512
     28 N1          0.7370    6.4615   -0.7020 N.ar      1 ACP        -0.7699
     29 C2          1.8196    5.7785   -0.2355 C.ar      1 ACP         0.6898
     30 N3          1.8948    4.4713    0.1036 N.ar      1 ACP        -0.6800
     31 C4          0.7337    3.8311   -0.0629 C.ar      1 ACP         0.6129
     32 HOG3        6.7411   -5.4124   -4.9852 H         1 ACP         0.4199
     33 H3B1        2.5108   -4.3059   -4.1371 H         1 ACP         0.0672
     34 H3B2        3.1416   -5.1045   -5.5802 H         1 ACP         0.0672
     35 H5'1        1.3500    0.2325   -2.1560 H         1 ACP         0.0277
     36 H5'2        2.1267   -1.3683   -2.0444 H         1 ACP         0.0277
     37 H4'         3.8050   -0.1388   -0.4008 H         1 ACP         0.1249
     38 H3'         1.6784   -1.7629    0.2714 H         1 ACP         0.0564
     39 HO3'        2.2232   -1.2979    2.3953 H         1 ACP         0.4511
     40 H2'        -0.0011    0.0027    0.0003 H         1 ACP         0.0716
     41 HO2'       -0.1563   -0.9855    2.0596 H         1 ACP         0.4454
     42 H1'         1.7826    1.9024    1.6451 H         1 ACP         0.1310
     43 H8         -1.3516    1.4351   -0.0582 H         1 ACP         0.3565
     44 HN61       -1.5599    7.3536   -1.5061 H         1 ACP         0.4414
     45 HN62       -2.4184    5.8418   -1.3770 H         1 ACP         0.4414
     46 H2          2.7305    6.3553   -0.1232 H         1 ACP         0.0676
     47 H47        -2.3700    3.5931   -0.8665 H         1 ACP         0.5052
@<TRIPOS>BOND
     1    1    2 2
     2    1    3 1
     3    1    4 1
     4    1    8 1
     5    4   32 1
     6    5    6 2
     7    5    7 1
     8    5    8 1
     9    5   12 1
    10    8   33 1
    11    8   34 1
    12    9   10 2
    13    9   11 1
    14    9   12 1
    15    9   13 1
    16   13   14 1
    17   14   15 1
    18   14   35 1
    19   14   36 1
    20   15   16 1
    21   15   17 1
    22   15   37 1
    23   16   21 1
    24   17   18 1
    25   17   19 1
    26   17   38 1
    27   18   39 1
    28   19   20 1
    29   19   21 1
    30   19   40 1
    31   20   41 1
    32   21   22 1
    33   21   42 1
    34   22   23 ar
    35   22   31 ar
    36   23   24 ar
    37   23   43 1
    38   24   25 ar
    39   24   47 1
    40   25   26 ar
    41   25   31 ar
    42   26   27 1
    43   26   28 ar
    44   27   44 1
    45   27   45 1
    46   28   29 ar
    47   29   30 ar
    48   29   46 1
    49   30   31 ar
@<TRIPOS>SUBSTRUCTURE
     1 ACP         1 GROUP 0 A     ****
@<TRIPOS>MOLECULE
[[5-(6-amino-7,8-dihydropurin-8-ylium-9-yl)-3,4-dihydroxy-tetrahydrofuran-2-yl]methoxy-oxido-phosphoryl]oxy-[[hydroxy(oxido)phosphoryl]methyl]phosphinate
   47    49     1     0     0
SMALL
USER_CHARGES

@<TRIPOS>ATOM
      1 PG          0.3574   -8.1001    0.7086 P.3       1 ACP         1.3755
      2 O1G         0.4498   -9.4798    0.0997 O.co2     1 ACP        -0.8970
      3 O2G         0.3081   -6.8496   -0.1387 O.co2     1 ACP        -0.8970
      4 O3G        -0.8609   -8.0666    1.7923 O.3       1 ACP        -0.7959
      5 PB          2.0701   -6.3810    2.8735 P.3       1 ACP         1.5194
      6 O1B         2.2715   -5.2465    1.8962 O.co2     1 ACP        -0.8958
      7 O2B         3.0940   -6.7227    3.9314 O.co2     1 ACP        -0.8958
      8 C3B         1.7684   -7.9134    1.8861 C.3       1 ACP        -0.5612
      9 PA         -0.0671   -5.0728    4.4633 P.3       1 ACP         1.6019
     10 O1A         0.8700   -4.7631    5.6103 O.co2     1 ACP        -0.9040
     11 O2A        -1.5164   -5.4219    4.7247 O.co2     1 ACP        -0.9040
     12 O3A         0.5967   -6.2612    3.5612 O.3       1 ACP        -0.8156
     13 O5'         0.0099   -3.8403    3.3910 O.3       1 ACP        -0.5465
     14 C5'        -0.7840   -3.8935    2.2172 C.3       1 ACP         0.2108
     15 C4'        -0.0724   -3.1466    1.1027 C.3       1 ACP         0.0552
     16 O4'        -0.8674   -3.1929   -0.0945 O.3       1 ACP        -0.3428
     17 C3'         0.1338   -1.6715    1.4027 C.3       1 ACP         0.0750
     18 O3'         1.2893   -1.4445    2.1808 O.3       1 ACP        -0.6066
     19 C2'         0.2158   -1.0724    0.0128 C.3       1 ACP         0.1185
     20 O2'         1.5141   -1.2448   -0.5513 O.3       1 ACP        -0.5858
     21 C1'        -0.7897   -1.9176   -0.7583 C.3       1 ACP         0.3826
     22 N9         -2.1040   -1.3333   -0.7704 N.pl3     1 ACP        -0.5729
     23 C8         -3.0822   -1.4850    0.1102 C.ar      1 ACP         0.3288
     24 N7         -4.1844   -0.7999   -0.1888 N.pl3     1 ACP        -0.5338
     25 C5         -3.8875   -0.1651   -1.3445 C.ar      1 ACP        -0.2581
     26 C6         -4.5941    0.6799   -2.1486 C.ar      1 ACP         0.7413
     27 N6         -5.9138    1.0274   -1.7939 N.pl3     1 ACP        -0.9512
     28 N1         -4.0421    1.1824   -3.2748 N.ar      1 ACP        -0.7699
     29 C2         -2.7637    0.7937   -3.5405 C.ar      1 ACP         0.6898
     30 N3         -1.9788   -0.0343   -2.8139 N.ar      1 ACP        -0.6800
     31 C4         -2.5915   -0.4902   -1.7174 C.ar      1 ACP         0.6129
     32 HOG3       -1.7696   -8.2650    1.4808 H         1 ACP         0.4199
     33 H3B1        2.6774   -8.0900    1.3006 H         1 ACP         0.0672
     34 H3B2        1.6817   -8.7306    2.6108 H         1 ACP         0.0672
     35 H5'1       -0.9358   -4.9414    1.9395 H         1 ACP         0.0277
     36 H5'2       -1.7558   -3.4349    2.4258 H         1 ACP         0.0277
     37 H4'         0.8886   -3.6447    0.8779 H         1 ACP         0.1249
     38 H3'        -0.7373   -1.2359    1.9870 H         1 ACP         0.0564
     39 HO3'        2.0374   -1.7816    1.6652 H         1 ACP         0.4511
     40 H2'        -0.0384   -0.0310    0.0096 H         1 ACP         0.0716
     41 HO2'        1.6843   -2.2021   -0.5965 H         1 ACP         0.4454
     42 H1'        -0.4769   -2.1002   -1.8093 H         1 ACP         0.1310
     43 H8         -3.0031   -2.1011    0.9891 H         1 ACP         0.3565
     44 HN61       -6.3271    0.6117   -0.9836 H         1 ACP         0.4414
     45 HN62       -6.4471    1.6092   -2.4083 H         1 ACP         0.4414
     46 H2         -2.3243    1.1986   -4.4449 H         1 ACP         0.0676
     47 H47        -5.0436   -0.7722    0.3425 H         1 ACP         0.5052
@<TRIPOS>BOND
     1    1    2 2
     2    1    3 1
     3    1    4 1
     4    1    8 1
     5    4   32 1
     6    5    6 2
     7    5    7 1
     8    5    8 1
     9    5   12 1
    10    8   33 1
    11    8   34 1
    12    9   10 2
    13    9   11 1
    14    9   12 1
    15    9   13 1
    16   13   14 1
    17   14   15 1
    18   14   35 1
    19   14   36 1
    20   15   16 1
    21   15   17 1
    22   15   37 1
    23   16   21 1
    24   17   18 1
    25   17   19 1
    26   17   38 1
    27   18   39 1
    28   19   20 1
    29   19   21 1
    30   19   40 1
    31   20   41 1
    32   21   22 1
    33   21   42 1
    34   22   23 ar
    35   22   31 ar
    36   23   24 ar
    37   23   43 1
    38   24   25 ar
    39   24   47 1
    40   25   26 ar
    41   25   31 ar
    42   26   27 1
    43   26   28 ar
    44   27   44 1
    45   27   45 1
    46   28   29 ar
    47   29   30 ar
    48   29   46 1
    49   30   31 ar
@<TRIPOS>SUBSTRUCTURE
     1 ACP         1 GROUP 0 A     ****
@<TRIPOS>MOLECULE
[[5-(6-amino-7,8-dihydropurin-8-ylium-9-yl)-3,4-dihydroxy-tetrahydrofuran-2-yl]methoxy-oxido-phosphoryl]oxy-[[hydroxy(oxido)phosphoryl]methyl]phosphinate
   47    49     1     0     0
SMALL
USER_CHARGES

@<TRIPOS>ATOM
      1 PG          2.0778    1.3109   -6.2409 P.3       1 ACP         1.3755
      2 O1G         3.0272    2.0854   -5.3567 O.co2     1 ACP        -0.8970
      3 O2G         0.6574    1.0075   -5.8230 O.co2     1 ACP        -0.8970
      4 O3G         2.0731    1.9651   -7.7348 O.3       1 ACP        -0.7959
      5 PB          3.3936   -1.5362   -5.3818 P.3       1 ACP         1.5194
      6 O1B         4.3914   -0.8627   -4.4688 O.co2     1 ACP        -0.8958
      7 O2B         3.7091   -2.8235   -6.1081 O.co2     1 ACP        -0.8958
      8 C3B         2.8865   -0.2973   -6.6554 C.3       1 ACP        -0.5612
      9 PA          1.5537   -2.4539   -3.2418 P.3       1 ACP         1.6019
     10 O1A         2.0300   -3.8868   -3.3414 O.co2     1 ACP        -0.9040
     11 O2A         0.1072   -2.1427   -2.9238 O.co2     1 ACP        -0.9040
     12 O3A         1.9587   -1.6787   -4.6209 O.3       1 ACP        -0.8156
     13 O5'         2.5237   -1.6631   -2.1889 O.3       1 ACP        -0.5465
     14 C5'         2.2816   -0.2918   -1.9206 C.3       1 ACP         0.2108
     15 C4'         2.7248    0.0226   -0.4980 C.3       1 ACP         0.0552
     16 O4'         2.4697    1.4219   -0.2462 O.3       1 ACP        -0.3428
     17 C3'         1.9404   -0.7419    0.5596 C.3       1 ACP         0.0750
     18 O3'         2.7418   -0.8086    1.7389 O.3       1 ACP        -0.6066
     19 C2'         0.7477    0.1630    0.7858 C.3       1 ACP         0.1185
     20 O2'         0.1373   -0.0577    2.0407 O.3       1 ACP        -0.5858
     21 C1'         1.3733    1.5427    0.6747 C.3       1 ACP         0.3826
     22 N9          0.4520    2.5240    0.1767 N.pl3     1 ACP        -0.5729
     23 C8         -0.5899    2.3466   -0.6224 C.ar      1 ACP         0.3288
     24 N7         -1.2514    3.4689   -0.8989 N.pl3     1 ACP        -0.5338
     25 C5         -0.5826    4.4323   -0.2272 C.ar      1 ACP        -0.2581
     26 C6         -0.7636    5.7789   -0.1086 C.ar      1 ACP         0.7413
     27 N6         -1.8382    6.3927   -0.7843 N.pl3     1 ACP        -0.9512
     28 N1          0.0741    6.5233    0.6461 N.ar      1 ACP        -0.7699
     29 C2          1.0845    5.8486    1.2626 C.ar      1 ACP         0.6898
     30 N3          1.3516    4.5236    1.2116 N.ar      1 ACP        -0.6800
     31 C4          0.4827    3.8546    0.4481 C.ar      1 ACP         0.6129
     32 HOG3        1.8010    2.9023   -7.8342 H         1 ACP         0.4199
     33 H3B1        3.7903   -0.0453   -7.2212 H         1 ACP         0.0672
     34 H3B2        2.2086   -0.8219   -7.3379 H         1 ACP         0.0672
     35 H5'1        2.8429    0.3140   -2.6391 H         1 ACP         0.0277
     36 H5'2        1.2125   -0.0906   -2.0420 H         1 ACP         0.0277
     37 H4'         3.8050   -0.1388   -0.4008 H         1 ACP         0.1249
     38 H3'         1.6784   -1.7629    0.2714 H         1 ACP         0.0564
     39 HO3'        2.2232   -1.2979    2.3953 H         1 ACP         0.4511
     40 H2'        -0.0011    0.0027    0.0003 H         1 ACP         0.0716
     41 HO2'       -0.6141    0.5574    2.1082 H         1 ACP         0.4454
     42 H1'         1.7826    1.9024    1.6451 H         1 ACP         0.1310
     43 H8         -0.8833    1.3888   -1.0158 H         1 ACP         0.3565
     44 HN61       -2.4225    5.8385   -1.3773 H         1 ACP         0.4414
     45 HN62       -1.9421    7.3862   -0.7348 H         1 ACP         0.4414
     46 H2          1.7546    6.4491    1.8670 H         1 ACP         0.0676
     47 H47        -2.0705    3.5612   -1.4834 H         1 ACP         0.5052
@<TRIPOS>BOND
     1    1    2 2
     2    1    3 1
     3    1    4 1
     4    1    8 1
     5    4   32 1
     6    5    6 2
     7    5    7 1
     8    5    8 1
     9    5   12 1
    10    8   33 1
    11    8   34 1
    12    9   10 2
    13    9   11 1
    14    9   12 1
    15    9   13 1
    16   13   14 1
    17   14   15 1
    18   14   35 1
    19   14   36 1
    20   15   16 1
    21   15   17 1
    22   15   37 1
    23   16   21 1
    24   17   18 1
    25   17   19 1
    26   17   38 1
    27   18   39 1
    28   19   20 1
    29   19   21 1
    30   19   40 1
    31   20   41 1
    32   21   22 1
    33   21   42 1
    34   22   23 ar
    35   22   31 ar
    36   23   24 ar
    37   23   43 1
    38   24   25 ar
    39   24   47 1
    40   25   26 ar
    41   25   31 ar
    42   26   27 1
    43   26   28 ar
    44   27   44 1
    45   27   45 1
    46   28   29 ar
    47   29   30 ar
    48   29   46 1
    49   30   31 ar
@<TRIPOS>SUBSTRUCTURE
     1 ACP         1 GROUP 0 A     ****
@<TRIPOS>MOLECULE
[[5-(6-amino-7,8-dihydropurin-8-ylium-9-yl)-3,4-dihydroxy-tetrahydrofuran-2-yl]methoxy-oxido-phosphoryl]oxy-[[hydroxy(oxido)phosphoryl]methyl]phosphinate
   47    49     1     0     0
SMALL
USER_CHARGES

@<TRIPOS>ATOM
      1 PG         -4.6392   -5.7117    3.9798 P.3       1 ACP         1.3755
      2 O1G        -4.5625   -4.2145    3.7912 O.co2     1 ACP        -0.8970
      3 O2G        -5.9528   -6.4289    4.1896 O.co2     1 ACP        -0.8970
      4 O3G        -3.8043   -6.4510    2.7897 O.3       1 ACP        -0.7959
      5 PB         -1.7212   -5.8117    5.4119 P.3       1 ACP         1.5194
      6 O1B        -1.1115   -6.5501    4.2433 O.co2     1 ACP        -0.8958
      7 O2B        -1.2397   -6.0131    6.8303 O.co2     1 ACP        -0.8958
      8 C3B        -3.5369   -6.1539    5.3946 C.3       1 ACP        -0.5612
      9 PA         -0.6036   -3.1462    4.7389 P.3       1 ACP         1.6019
     10 O1A         0.4415   -3.2242    5.8304 O.co2     1 ACP        -0.9040
     11 O2A        -1.2428   -1.8231    4.3766 O.co2     1 ACP        -0.9040
     12 O3A        -1.7885   -4.2165    5.0818 O.3       1 ACP        -0.8156
     13 O5'         0.0099   -3.8403    3.3910 O.3       1 ACP        -0.5465
     14 C5'        -0.7840   -3.8935    2.2172 C.3       1 ACP         0.2108
     15 C4'        -0.0724   -3.1466    1.1027 C.3       1 ACP         0.0552
     16 O4'        -0.8674   -3.1929   -0.0945 O.3       1 ACP        -0.3428
     17 C3'         0.1338   -1.6715    1.4027 C.3       1 ACP         0.0750
     18 O3'         1.2893   -1.4445    2.1808 O.3       1 ACP        -0.6066
     19 C2'         0.2158   -1.0724    0.0128 C.3       1 ACP         0.1185
     20 O2'         1.5141   -1.2448   -0.5513 O.3       1 ACP        -0.5858
     21 C1'        -0.7897   -1.9176   -0.7583 C.3       1 ACP         0.3826
     22 N9         -2.1040   -1.3333   -0.7704 N.pl3     1 ACP        -0.5729
     23 C8         -3.2304   -1.8262   -0.2767 C.ar      1 ACP         0.3288
     24 N7         -4.2847   -1.0309   -0.4481 N.pl3     1 ACP        -0.5338
     25 C5         -3.7951    0.0479   -1.0985 C.ar      1 ACP        -0.2581
     26 C6         -4.3691    1.1983   -1.5536 C.ar      1 ACP         0.7413
     27 N6         -5.7501    1.4047   -1.3573 N.pl3     1 ACP        -0.9512
     28 N1         -3.6289    2.1345   -2.1869 N.ar      1 ACP        -0.7699
     29 C2         -2.3041    1.8525   -2.3333 C.ar      1 ACP         0.6898
     30 N3         -1.6387    0.7492   -1.9218 N.ar      1 ACP        -0.6800
     31 C4         -2.4348   -0.1293   -1.3053 C.ar      1 ACP         0.6129
     32 HOG3       -4.0811   -6.3003    1.8608 H         1 ACP         0.4199
     33 H3B1       -3.6513   -7.2335    5.5421 H         1 ACP         0.0672
     34 H3B2       -3.9491   -5.6569    6.2798 H         1 ACP         0.0672
     35 H5'1       -0.9358   -4.9414    1.9395 H         1 ACP         0.0277
     36 H5'2       -1.7558   -3.4349    2.4258 H         1 ACP         0.0277
     37 H4'         0.8886   -3.6447    0.8779 H         1 ACP         0.1249
     38 H3'        -0.7373   -1.2359    1.9870 H         1 ACP         0.0564
     39 HO3'        1.3408   -0.4870    2.3219 H         1 ACP         0.4511
     40 H2'        -0.0384   -0.0310    0.0096 H         1 ACP         0.0716
     41 HO2'        2.1463   -0.7958    0.0370 H         1 ACP         0.4454
     42 H1'        -0.4769   -2.1002   -1.8093 H         1 ACP         0.1310
     43 H8         -3.2974   -2.7789    0.2194 H         1 ACP         0.3565
     44 HN61       -6.2956    0.6838   -0.9296 H         1 ACP         0.4414
     45 HN62       -6.1788    2.2266   -1.7327 H         1 ACP         0.4414
     46 H2         -1.7135    2.6057   -2.8421 H         1 ACP         0.0676
     47 H47        -5.2337   -1.2102   -0.1507 H         1 ACP         0.5052
@<TRIPOS>BOND
     1    1    2 2
     2    1    3 1
     3    1    4 1
     4    1    8 1
     5    4   32 1
     6    5    6 2
     7    5    7 1
     8    5    8 1
     9    5   12 1
    10    8   33 1
    11    8   34 1
    12    9   10 2
    13    9   11 1
    14    9   12 1
    15    9   13 1
    16   13   14 1
    17   14   15 1
    18   14   35 1
    19   14   36 1
    20   15   16 1
    21   15   17 1
    22   15   37 1
    23   16   21 1
    24   17   18 1
    25   17   19 1
    26   17   38 1
    27   18   39 1
    28   19   20 1
    29   19   21 1
    30   19   40 1
    31   20   41 1
    32   21   22 1
    33   21   42 1
    34   22   23 ar
    35   22   31 ar
    36   23   24 ar
    37   23   43 1
    38   24   25 ar
    39   24   47 1
    40   25   26 ar
    41   25   31 ar
    42   26   27 1
    43   26   28 ar
    44   27   44 1
    45   27   45 1
    46   28   29 ar
    47   29   30 ar
    48   29   46 1
    49   30   31 ar
@<TRIPOS>SUBSTRUCTURE
     1 ACP         1 GROUP 0 A     ****
@<TRIPOS>MOLECULE
[[5-(6-amino-7,8-dihydropurin-8-ylium-9-yl)-3,4-dihydroxy-tetrahydrofuran-2-yl]methoxy-oxido-phosphoryl]oxy-[[hydroxy(oxido)phosphoryl]methyl]phosphinate
   47    49     1     0     0
SMALL
USER_CHARGES

@<TRIPOS>ATOM
      1 PG          0.3337   -0.3058   -8.0483 P.3       1 ACP         1.3755
      2 O1G        -1.0251   -0.6419   -8.6172 O.co2     1 ACP        -0.8970
      3 O2G         1.3926   -1.3598   -7.8208 O.co2     1 ACP        -0.8970
      4 O3G         0.9791    0.9365   -8.8850 O.3       1 ACP        -0.7959
      5 PB          1.4479    1.1717   -5.3743 P.3       1 ACP         1.5194
      6 O1B         0.8280    1.8212   -4.1591 O.co2     1 ACP        -0.8958
      7 O2B         2.4188    1.9050   -6.2710 O.co2     1 ACP        -0.8958
      8 C3B         0.0668    0.5642   -6.4408 C.3       1 ACP        -0.5612
      9 PA          3.4821   -0.6660   -4.2377 P.3       1 ACP         1.6019
     10 O1A         4.6119   -0.0112   -5.0023 O.co2     1 ACP        -0.9040
     11 O2A         3.4912   -2.1564   -3.9749 O.co2     1 ACP        -0.9040
     12 O3A         2.0730   -0.2777   -4.9662 O.3       1 ACP        -0.8156
     13 O5'         3.2883    0.1336   -2.8242 O.3       1 ACP        -0.5465
     14 C5'         2.2816   -0.2918   -1.9206 C.3       1 ACP         0.2108
     15 C4'         2.7248    0.0226   -0.4980 C.3       1 ACP         0.0552
     16 O4'         2.4697    1.4219   -0.2462 O.3       1 ACP        -0.3428
     17 C3'         1.9404   -0.7419    0.5596 C.3       1 ACP         0.0750
     18 O3'         2.7418   -0.8086    1.7389 O.3       1 ACP        -0.6066
     19 C2'         0.7477    0.1630    0.7858 C.3       1 ACP         0.1185
     20 O2'         0.1373   -0.0577    2.0407 O.3       1 ACP        -0.5858
     21 C1'         1.3733    1.5427    0.6747 C.3       1 ACP         0.3826
     22 N9          0.4520    2.5240    0.1767 N.pl3     1 ACP        -0.5729
     23 C8         -0.5899    2.3466   -0.6224 C.ar      1 ACP         0.3288
     24 N7         -1.2514    3.4689   -0.8989 N.pl3     1 ACP        -0.5338
     25 C5         -0.5826    4.4323   -0.2272 C.ar      1 ACP        -0.2581
     26 C6         -0.7636    5.7789   -0.1086 C.ar      1 ACP         0.7413
     27 N6         -1.8382    6.3927   -0.7843 N.pl3     1 ACP        -0.9512
     28 N1          0.0741    6.5233    0.6461 N.ar      1 ACP        -0.7699
     29 C2          1.0845    5.8486    1.2626 C.ar      1 ACP         0.6898
     30 N3          1.3516    4.5236    1.2116 N.ar      1 ACP        -0.6800
     31 C4          0.4827    3.8546    0.4481 C.ar      1 ACP         0.6129
     32 HOG3        1.1307    0.8235   -9.8476 H         1 ACP         0.4199
     33 H3B1       -0.5271   -0.1176   -5.8220 H         1 ACP         0.0672
     34 H3B2       -0.5578    1.4379   -6.6575 H         1 ACP         0.0672
     35 H5'1        1.3500    0.2325   -2.1560 H         1 ACP         0.0277
     36 H5'2        2.1267   -1.3683   -2.0444 H         1 ACP         0.0277
     37 H4'         3.8050   -0.1388   -0.4008 H         1 ACP         0.1249
     38 H3'         1.6784   -1.7629    0.2714 H         1 ACP         0.0564
     39 HO3'        2.2232   -1.2979    2.3953 H         1 ACP         0.4511
     40 H2'        -0.0011    0.0027    0.0003 H         1 ACP         0.0716
     41 HO2'       -0.6141    0.5574    2.1082 H         1 ACP         0.4454
     42 H1'         1.7826    1.9024    1.6451 H         1 ACP         0.1310
     43 H8         -0.8833    1.3888   -1.0158 H         1 ACP         0.3565
     44 HN61       -2.4225    5.8385   -1.3773 H         1 ACP         0.4414
     45 HN62       -1.9421    7.3862   -0.7348 H         1 ACP         0.4414
     46 H2          1.7546    6.4491    1.8670 H         1 ACP         0.0676
     47 H47        -2.0705    3.5612   -1.4834 H         1 ACP         0.5052
@<TRIPOS>BOND
     1    1    2 2
     2    1    3 1
     3    1    4 1
     4    1    8 1
     5    4   32 1
     6    5    6 2
     7    5    7 1
     8    5    8 1
     9    5   12 1
    10    8   33 1
    11    8   34 1
    12    9   10 2
    13    9   11 1
    14    9   12 1
    15    9   13 1
    16   13   14 1
    17   14   15 1
    18   14   35 1
    19   14   36 1
    20   15   16 1
    21   15   17 1
    22   15   37 1
    23   16   21 1
    24   17   18 1
    25   17   19 1
    26   17   38 1
    27   18   39 1
    28   19   20 1
    29   19   21 1
    30   19   40 1
    31   20   41 1
    32   21   22 1
    33   21   42 1
    34   22   23 ar
    35   22   31 ar
    36   23   24 ar
    37   23   43 1
    38   24   25 ar
    39   24   47 1
    40   25   26 ar
    41   25   31 ar
    42   26   27 1
    43   26   28 ar
    44   27   44 1
    45   27   45 1
    46   28   29 ar
    47   29   30 ar
    48   29   46 1
    49   30   31 ar
@<TRIPOS>SUBSTRUCTURE
     1 ACP         1 GROUP 0 A     ****
@<TRIPOS>MOLECULE
[[5-(6-amino-7,8-dihydropurin-8-ylium-9-yl)-3,4-dihydroxy-tetrahydrofuran-2-yl]methoxy-oxido-phosphoryl]oxy-[[hydroxy(oxido)phosphoryl]methyl]phosphinate
   47    49     1     0     0
SMALL
USER_CHARGES

@<TRIPOS>ATOM
      1 PG          3.6180   -3.7752    4.9358 P.3       1 ACP         1.3755
      2 O1G         4.1265   -2.4377    5.4212 O.co2     1 ACP        -0.8970
      3 O2G         3.2452   -4.0168    3.4912 O.co2     1 ACP        -0.8970
      4 O3G         4.6283   -4.9533    5.4371 O.3       1 ACP        -0.7959
      5 PB          1.1904   -5.7845    5.7386 P.3       1 ACP         1.5194
      6 O1B         0.0793   -5.7839    6.7623 O.co2     1 ACP        -0.8958
      7 O2B         2.1879   -6.9152    5.6349 O.co2     1 ACP        -0.8958
      8 C3B         2.1520   -4.2232    5.9664 C.3       1 ACP        -0.5612
      9 PA         -0.5394   -6.2504    3.3727 P.3       1 ACP         1.6019
     10 O1A        -1.8751   -6.1362    4.0746 O.co2     1 ACP        -0.9040
     11 O2A         0.0186   -7.6049    2.9927 O.co2     1 ACP        -0.9040
     12 O3A         0.5799   -5.4608    4.2620 O.3       1 ACP        -0.8156
     13 O5'        -0.5697   -5.2855    2.0524 O.3       1 ACP        -0.5465
     14 C5'        -0.7840   -3.8935    2.2172 C.3       1 ACP         0.2108
     15 C4'        -0.0724   -3.1466    1.1027 C.3       1 ACP         0.0552
     16 O4'        -0.8674   -3.1929   -0.0945 O.3       1 ACP        -0.3428
     17 C3'         0.1338   -1.6715    1.4027 C.3       1 ACP         0.0750
     18 O3'         1.2893   -1.4445    2.1808 O.3       1 ACP        -0.6066
     19 C2'         0.2158   -1.0724    0.0128 C.3       1 ACP         0.1185
     20 O2'         1.5141   -1.2448   -0.5513 O.3       1 ACP        -0.5858
     21 C1'        -0.7897   -1.9176   -0.7583 C.3       1 ACP         0.3826
     22 N9         -2.1040   -1.3333   -0.7704 N.pl3     1 ACP        -0.5729
     23 C8         -3.2304   -1.8262   -0.2767 C.ar      1 ACP         0.3288
     24 N7         -4.2847   -1.0309   -0.4481 N.pl3     1 ACP        -0.5338
     25 C5         -3.7951    0.0479   -1.0985 C.ar      1 ACP        -0.2581
     26 C6         -4.3691    1.1983   -1.5536 C.ar      1 ACP         0.7413
     27 N6         -5.7501    1.4047   -1.3573 N.pl3     1 ACP        -0.9512
     28 N1         -3.6289    2.1345   -2.1869 N.ar      1 ACP        -0.7699
     29 C2         -2.3041    1.8525   -2.3333 C.ar      1 ACP         0.6898
     30 N3         -1.6387    0.7492   -1.9218 N.ar      1 ACP        -0.6800
     31 C4         -2.4348   -0.1293   -1.3053 C.ar      1 ACP         0.6129
     32 HOG3        5.5650   -4.9206    5.1479 H         1 ACP         0.4199
     33 H3B1        1.4386   -3.3994    5.8532 H         1 ACP         0.0672
     34 H3B2        2.4900   -4.2228    7.0086 H         1 ACP         0.0672
     35 H5'1       -1.8599   -3.6946    2.1849 H         1 ACP         0.0277
     36 H5'2       -0.3934   -3.5881    3.1930 H         1 ACP         0.0277
     37 H4'         0.8886   -3.6447    0.8779 H         1 ACP         0.1249
     38 H3'        -0.7373   -1.2359    1.9870 H         1 ACP         0.0564
     39 HO3'        1.3408   -0.4870    2.3219 H         1 ACP         0.4511
     40 H2'        -0.0384   -0.0310    0.0096 H         1 ACP         0.0716
     41 HO2'        1.4998   -0.8412   -1.4369 H         1 ACP         0.4454
     42 H1'        -0.4769   -2.1002   -1.8093 H         1 ACP         0.1310
     43 H8         -3.2974   -2.7789    0.2194 H         1 ACP         0.3565
     44 HN61       -6.2956    0.6838   -0.9296 H         1 ACP         0.4414
     45 HN62       -6.1788    2.2266   -1.7327 H         1 ACP         0.4414
     46 H2         -1.7135    2.6057   -2.8421 H         1 ACP         0.0676
     47 H47        -5.2337   -1.2102   -0.1507 H         1 ACP         0.5052
@<TRIPOS>BOND
     1    1    2 2
     2    1    3 1
     3    1    4 1
     4    1    8 1
     5    4   32 1
     6    5    6 2
     7    5    7 1
     8    5    8 1
     9    5   12 1
    10    8   33 1
    11    8   34 1
    12    9   10 2
    13    9   11 1
    14    9   12 1
    15    9   13 1
    16   13   14 1
    17   14   15 1
    18   14   35 1
    19   14   36 1
    20   15   16 1
    21   15   17 1
    22   15   37 1
    23   16   21 1
    24   17   18 1
    25   17   19 1
    26   17   38 1
    27   18   39 1
    28   19   20 1
    29   19   21 1
    30   19   40 1
    31   20   41 1
    32   21   22 1
    33   21   42 1
    34   22   23 ar
    35   22   31 ar
    36   23   24 ar
    37   23   43 1
    38   24   25 ar
    39   24   47 1
    40   25   26 ar
    41   25   31 ar
    42   26   27 1
    43   26   28 ar
    44   27   44 1
    45   27   45 1
    46   28   29 ar
    47   29   30 ar
    48   29   46 1
    49   30   31 ar
@<TRIPOS>SUBSTRUCTURE
     1 ACP         1 GROUP 0 A     ****
@<TRIPOS>MOLECULE
[[5-(6-amino-7,8-dihydropurin-8-ylium-9-yl)-3,4-dihydroxy-tetrahydrofuran-2-yl]methoxy-oxido-phosphoryl]oxy-[[hydroxy(oxido)phosphoryl]methyl]phosphinate
   47    49     1     0     0
SMALL
USER_CHARGES

@<TRIPOS>ATOM
      1 PG          0.4265    0.7527   -6.0514 P.3       1 ACP         1.3755
      2 O1G         0.1335    1.4466   -7.3612 O.co2     1 ACP        -0.8970
      3 O2G         1.5354    1.2085   -5.1312 O.co2     1 ACP        -0.8970
      4 O3G        -0.9550    0.6003   -5.1981 O.3       1 ACP        -0.7959
      5 PB          1.1090   -2.2866   -5.1176 P.3       1 ACP         1.5194
      6 O1B         1.2707   -3.6202   -5.8089 O.co2     1 ACP        -0.8958
      7 O2B         0.1303   -2.0815   -3.9842 O.co2     1 ACP        -0.8958
      8 C3B         0.7134   -1.0349   -6.4179 C.3       1 ACP        -0.5612
      9 PA          3.5286   -2.0718   -3.4129 P.3       1 ACP         1.6019
     10 O1A         4.6988   -1.1125   -3.4065 O.co2     1 ACP        -0.9040
     11 O2A         3.7579   -3.5677   -3.3967 O.co2     1 ACP        -0.9040
     12 O3A         2.5709   -1.7089   -4.6849 O.3       1 ACP        -0.8156
     13 O5'         2.5237   -1.6631   -2.1889 O.3       1 ACP        -0.5465
     14 C5'         2.2816   -0.2918   -1.9206 C.3       1 ACP         0.2108
     15 C4'         2.7248    0.0226   -0.4980 C.3       1 ACP         0.0552
     16 O4'         2.4697    1.4219   -0.2462 O.3       1 ACP        -0.3428
     17 C3'         1.9404   -0.7419    0.5596 C.3       1 ACP         0.0750
     18 O3'         2.7418   -0.8086    1.7389 O.3       1 ACP        -0.6066
     19 C2'         0.7477    0.1630    0.7858 C.3       1 ACP         0.1185
     20 O2'         0.1373   -0.0577    2.0407 O.3       1 ACP        -0.5858
     21 C1'         1.3733    1.5427    0.6747 C.3       1 ACP         0.3826
     22 N9          0.4520    2.5240    0.1767 N.pl3     1 ACP        -0.5729
     23 C8         -0.8602    2.5861    0.3496 C.ar      1 ACP         0.3288
     24 N7         -1.4308    3.6326   -0.2443 N.pl3     1 ACP        -0.5338
     25 C5         -0.4080    4.2856   -0.8394 C.ar      1 ACP        -0.2581
     26 C6         -0.3432    5.4196   -1.5943 C.ar      1 ACP         0.7413
     27 N6         -1.5276    6.1333   -1.8702 N.pl3     1 ACP        -0.9512
     28 N1          0.8395    5.8603   -2.0764 N.ar      1 ACP        -0.7699
     29 C2          1.9319    5.1095   -1.7617 C.ar      1 ACP         0.6898
     30 N3          1.9773    3.9761   -1.0249 N.ar      1 ACP        -0.6800
     31 C4          0.7724    3.6031   -0.5836 C.ar      1 ACP         0.6129
     32 HOG3       -1.4424    1.4139   -4.9479 H         1 ACP         0.4199
     33 H3B1        1.5353   -1.0679   -7.1416 H         1 ACP         0.0672
     34 H3B2       -0.1861   -1.3984   -6.9271 H         1 ACP         0.0672
     35 H5'1        2.8429    0.3140   -2.6391 H         1 ACP         0.0277
     36 H5'2        1.2125   -0.0906   -2.0420 H         1 ACP         0.0277
     37 H4'         3.8050   -0.1388   -0.4008 H         1 ACP         0.1249
     38 H3'         1.6784   -1.7629    0.2714 H         1 ACP         0.0564
     39 HO3'        2.2232   -1.2979    2.3953 H         1 ACP         0.4511
     40 H2'        -0.0011    0.0027    0.0003 H         1 ACP         0.0716
     41 HO2'       -0.1563   -0.9855    2.0596 H         1 ACP         0.4454
     42 H1'         1.7826    1.9024    1.6451 H         1 ACP         0.1310
     43 H8         -1.4217    1.8638    0.9164 H         1 ACP         0.3565
     44 HN61       -2.4023    5.7711   -1.5477 H         1 ACP         0.4414
     45 HN62       -1.4857    6.9379   -2.4627 H         1 ACP         0.4414
     46 H2          2.8789    5.4660   -2.1503 H         1 ACP         0.0676
     47 H47        -2.4129    3.8706   -0.2402 H         1 ACP         0.5052
@<TRIPOS>BOND
     1    1    2 2
     2    1    3 1
     3    1    4 1
     4    1    8 1
     5    4   32 1
     6    5    6 2
     7    5    7 1
     8    5    8 1
     9    5   12 1
    10    8   33 1
    11    8   34 1
    12    9   10 2
    13    9   11 1
    14    9   12 1
    15    9   13 1
    16   13   14 1
    17   14   15 1
    18   14   35 1
    19   14   36 1
    20   15   16 1
    21   15   17 1
    22   15   37 1
    23   16   21 1
    24   17   18 1
    25   17   19 1
    26   17   38 1
    27   18   39 1
    28   19   20 1
    29   19   21 1
    30   19   40 1
    31   20   41 1
    32   21   22 1
    33   21   42 1
    34   22   23 ar
    35   22   31 ar
    36   23   24 ar
    37   23   43 1
    38   24   25 ar
    39   24   47 1
    40   25   26 ar
    41   25   31 ar
    42   26   27 1
    43   26   28 ar
    44   27   44 1
    45   27   45 1
    46   28   29 ar
    47   29   30 ar
    48   29   46 1
    49   30   31 ar
@<TRIPOS>SUBSTRUCTURE
     1 ACP         1 GROUP 0 A     ****
@<TRIPOS>MOLECULE
[[5-(6-amino-7,8-dihydropurin-8-ylium-9-yl)-3,4-dihydroxy-tetrahydrofuran-2-yl]methoxy-oxido-phosphoryl]oxy-[[hydroxy(oxido)phosphoryl]methyl]phosphinate
   47    49     1     0     0
SMALL
USER_CHARGES

@<TRIPOS>ATOM
      1 PG          3.8903    0.2860   -6.3238 P.3       1 ACP         1.3755
      2 O1G         2.9434    0.5839   -5.1847 O.co2     1 ACP        -0.8970
      3 O2G         3.7371    0.9262   -7.6843 O.co2     1 ACP        -0.8970
      4 O3G         5.4280    0.4674   -5.8117 O.3       1 ACP        -0.7959
      5 PB          4.4189   -2.7429   -5.2647 P.3       1 ACP         1.5194
      6 O1B         5.8487   -2.4236   -4.8957 O.co2     1 ACP        -0.8958
      7 O2B         3.9948   -4.1188   -5.7245 O.co2     1 ACP        -0.8958
      8 C3B         3.9055   -1.5441   -6.5738 C.3       1 ACP        -0.5612
      9 PA          3.3333   -2.6377   -2.5048 P.3       1 ACP         1.6019
     10 O1A         4.5844   -2.1385   -1.8155 O.co2     1 ACP        -0.9040
     11 O2A         2.9259   -4.0918   -2.4049 O.co2     1 ACP        -0.9040
     12 O3A         3.4174   -2.2313   -4.0843 O.3       1 ACP        -0.8156
     13 O5'         2.0818   -1.6902   -2.0452 O.3       1 ACP        -0.5465
     14 C5'         2.2816   -0.2918   -1.9206 C.3       1 ACP         0.2108
     15 C4'         2.7248    0.0226   -0.4980 C.3       1 ACP         0.0552
     16 O4'         2.4697    1.4219   -0.2462 O.3       1 ACP        -0.3428
     17 C3'         1.9404   -0.7419    0.5596 C.3       1 ACP         0.0750
     18 O3'         2.7418   -0.8086    1.7389 O.3       1 ACP        -0.6066
     19 C2'         0.7477    0.1630    0.7858 C.3       1 ACP         0.1185
     20 O2'         0.1373   -0.0577    2.0407 O.3       1 ACP        -0.5858
     21 C1'         1.3733    1.5427    0.6747 C.3       1 ACP         0.3826
     22 N9          0.4520    2.5240    0.1767 N.pl3     1 ACP        -0.5729
     23 C8          0.1928    2.8484   -1.0815 C.ar      1 ACP         0.3288
     24 N7         -0.7248    3.8048   -1.2110 N.pl3     1 ACP        -0.5338
     25 C5         -1.0765    4.1129    0.0571 C.ar      1 ACP        -0.2581
     26 C6         -1.9614    5.0063    0.5851 C.ar      1 ACP         0.7413
     27 N6         -2.7145    5.8254   -0.2810 N.pl3     1 ACP        -0.9512
     28 N1         -2.1199    5.1113    1.9228 N.ar      1 ACP        -0.7699
     29 C2         -1.3522    4.2822    2.6839 C.ar      1 ACP         0.6898
     30 N3         -0.4501    3.3660    2.2638 N.ar      1 ACP        -0.6800
     31 C4         -0.3487    3.3198    0.9322 C.ar      1 ACP         0.6129
     32 HOG3        5.7085    1.3450   -5.4749 H         1 ACP         0.4199
     33 H3B1        4.5570   -1.7270   -7.4356 H         1 ACP         0.0672
     34 H3B2        2.8886   -1.8288   -6.8658 H         1 ACP         0.0672
     35 H5'1        3.0467    0.0218   -2.6379 H         1 ACP         0.0277
     36 H5'2        1.3432    0.2220   -2.1518 H         1 ACP         0.0277
     37 H4'         3.8050   -0.1388   -0.4008 H         1 ACP         0.1249
     38 H3'         1.6784   -1.7629    0.2714 H         1 ACP         0.0564
     39 HO3'        2.2232   -1.2979    2.3953 H         1 ACP         0.4511
     40 H2'        -0.0011    0.0027    0.0003 H         1 ACP         0.0716
     41 HO2'       -0.1563   -0.9855    2.0596 H         1 ACP         0.4454
     42 H1'         1.7826    1.9024    1.6451 H         1 ACP         0.1310
     43 H8          0.6728    2.3873   -1.9272 H         1 ACP         0.3565
     44 HN61       -2.5537    5.7714   -1.2667 H         1 ACP         0.4414
     45 HN62       -3.3283    6.5126    0.1080 H         1 ACP         0.4414
     46 H2         -1.4818    4.3694    3.7565 H         1 ACP         0.0676
     47 H47        -1.0701    4.2005   -2.0743 H         1 ACP         0.5052
@<TRIPOS>BOND
     1    1    2 2
     2    1    3 1
     3    1    4 1
     4    1    8 1
     5    4   32 1
     6    5    6 2
     7    5    7 1
     8    5    8 1
     9    5   12 1
    10    8   33 1
    11    8   34 1
    12    9   10 2
    13    9   11 1
    14    9   12 1
    15    9   13 1
    16   13   14 1
    17   14   15 1
    18   14   35 1
    19   14   36 1
    20   15   16 1
    21   15   17 1
    22   15   37 1
    23   16   21 1
    24   17   18 1
    25   17   19 1
    26   17   38 1
    27   18   39 1
    28   19   20 1
    29   19   21 1
    30   19   40 1
    31   20   41 1
    32   21   22 1
    33   21   42 1
    34   22   23 ar
    35   22   31 ar
    36   23   24 ar
    37   23   43 1
    38   24   25 ar
    39   24   47 1
    40   25   26 ar
    41   25   31 ar
    42   26   27 1
    43   26   28 ar
    44   27   44 1
    45   27   45 1
    46   28   29 ar
    47   29   30 ar
    48   29   46 1
    49   30   31 ar
@<TRIPOS>SUBSTRUCTURE
     1 ACP         1 GROUP 0 A     ****
@<TRIPOS>MOLECULE
[[5-(6-amino-7,8-dihydropurin-8-ylium-9-yl)-3,4-dihydroxy-tetrahydrofuran-2-yl]methoxy-oxido-phosphoryl]oxy-[[hydroxy(oxido)phosphoryl]methyl]phosphinate
   47    49     1     0     0
SMALL
USER_CHARGES

@<TRIPOS>ATOM
      1 PG          2.5005   -4.8183    1.6998 P.3       1 ACP         1.3755
      2 O1G         2.3704   -4.6603    3.1968 O.co2     1 ACP        -0.8970
      3 O2G         3.5483   -4.0773    0.9017 O.co2     1 ACP        -0.8970
      4 O3G         2.5582   -6.4047    1.3255 O.3       1 ACP        -0.7959
      5 PB          0.5304   -4.4846   -0.8659 P.3       1 ACP         1.5194
      6 O1B        -0.9161   -4.1029   -1.0767 O.co2     1 ACP        -0.8958
      7 O2B         1.1033   -5.7837   -1.3840 O.co2     1 ACP        -0.8958
      8 C3B         0.8576   -4.4264    0.9517 C.3       1 ACP        -0.5612
      9 PA          2.0054   -2.7672   -2.7847 P.3       1 ACP         1.6019
     10 O1A         0.8095   -2.2589   -3.5600 O.co2     1 ACP        -0.9040
     11 O2A         2.8957   -3.8468   -3.3611 O.co2     1 ACP        -0.9040
     12 O3A         1.4970   -3.2488   -1.3094 O.3       1 ACP        -0.8156
     13 O5'         2.9202   -1.4821   -2.3524 O.3       1 ACP        -0.5465
     14 C5'         2.2816   -0.2918   -1.9206 C.3       1 ACP         0.2108
     15 C4'         2.7248    0.0226   -0.4980 C.3       1 ACP         0.0552
     16 O4'         2.4697    1.4219   -0.2462 O.3       1 ACP        -0.3428
     17 C3'         1.9404   -0.7419    0.5596 C.3       1 ACP         0.0750
     18 O3'         2.7418   -0.8086    1.7389 O.3       1 ACP        -0.6066
     19 C2'         0.7477    0.1630    0.7858 C.3       1 ACP         0.1185
     20 O2'         0.1373   -0.0577    2.0407 O.3       1 ACP        -0.5858
     21 C1'         1.3733    1.5427    0.6747 C.3       1 ACP         0.3826
     22 N9          0.4520    2.5240    0.1767 N.pl3     1 ACP        -0.5729
     23 C8          0.1928    2.8484   -1.0815 C.ar      1 ACP         0.3288
     24 N7         -0.7248    3.8048   -1.2110 N.pl3     1 ACP        -0.5338
     25 C5         -1.0765    4.1129    0.0571 C.ar      1 ACP        -0.2581
     26 C6         -1.9614    5.0063    0.5851 C.ar      1 ACP         0.7413
     27 N6         -2.7145    5.8254   -0.2810 N.pl3     1 ACP        -0.9512
     28 N1         -2.1199    5.1113    1.9228 N.ar      1 ACP        -0.7699
     29 C2         -1.3522    4.2822    2.6839 C.ar      1 ACP         0.6898
     30 N3         -0.4501    3.3660    2.2638 N.ar      1 ACP        -0.6800
     31 C4         -0.3487    3.3198    0.9322 C.ar      1 ACP         0.6129
     32 HOG3        3.2848   -6.9474    1.6994 H         1 ACP         0.4199
     33 H3B1        0.6094   -3.4110    1.2800 H         1 ACP         0.0672
     34 H3B2        0.1330   -5.1061    1.4137 H         1 ACP         0.0672
     35 H5'1        2.5581    0.5235   -2.5966 H         1 ACP         0.0277
     36 H5'2        1.1974   -0.4370   -1.9607 H         1 ACP         0.0277
     37 H4'         3.8050   -0.1388   -0.4008 H         1 ACP         0.1249
     38 H3'         1.6784   -1.7629    0.2714 H         1 ACP         0.0564
     39 HO3'        2.2232   -1.2979    2.3953 H         1 ACP         0.4511
     40 H2'        -0.0011    0.0027    0.0003 H         1 ACP         0.0716
     41 HO2'       -0.1563   -0.9855    2.0596 H         1 ACP         0.4454
     42 H1'         1.7826    1.9024    1.6451 H         1 ACP         0.1310
     43 H8          0.6728    2.3873   -1.9272 H         1 ACP         0.3565
     44 HN61       -2.5537    5.7714   -1.2667 H         1 ACP         0.4414
     45 HN62       -3.3283    6.5126    0.1080 H         1 ACP         0.4414
     46 H2         -1.4818    4.3694    3.7565 H         1 ACP         0.0676
     47 H47        -1.0701    4.2005   -2.0743 H         1 ACP         0.5052
@<TRIPOS>BOND
     1    1    2 2
     2    1    3 1
     3    1    4 1
     4    1    8 1
     5    4   32 1
     6    5    6 2
     7    5    7 1
     8    5    8 1
     9    5   12 1
    10    8   33 1
    11    8   34 1
    12    9   10 2
    13    9   11 1
    14    9   12 1
    15    9   13 1
    16   13   14 1
    17   14   15 1
    18   14   35 1
    19   14   36 1
    20   15   16 1
    21   15   17 1
    22   15   37 1
    23   16   21 1
    24   17   18 1
    25   17   19 1
    26   17   38 1
    27   18   39 1
    28   19   20 1
    29   19   21 1
    30   19   40 1
    31   20   41 1
    32   21   22 1
    33   21   42 1
    34   22   23 ar
    35   22   31 ar
    36   23   24 ar
    37   23   43 1
    38   24   25 ar
    39   24   47 1
    40   25   26 ar
    41   25   31 ar
    42   26   27 1
    43   26   28 ar
    44   27   44 1
    45   27   45 1
    46   28   29 ar
    47   29   30 ar
    48   29   46 1
    49   30   31 ar
@<TRIPOS>SUBSTRUCTURE
     1 ACP         1 GROUP 0 A     ****
@<TRIPOS>MOLECULE
[[5-(6-amino-7,8-dihydropurin-8-ylium-9-yl)-3,4-dihydroxy-tetrahydrofuran-2-yl]methoxy-oxido-phosphoryl]oxy-[[hydroxy(oxido)phosphoryl]methyl]phosphinate
   47    49     1     0     0
SMALL
USER_CHARGES

@<TRIPOS>ATOM
      1 PG          5.7671   -4.2238   -2.7362 P.3       1 ACP         1.3755
      2 O1G         6.5328   -5.4385   -3.2064 O.co2     1 ACP        -0.8970
      3 O2G         4.2695   -4.1044   -2.9012 O.co2     1 ACP        -0.8970
      4 O3G         6.1679   -3.8958   -1.1897 O.3       1 ACP        -0.7959
      5 PB          5.9253   -1.0169   -3.2521 P.3       1 ACP         1.5194
      6 O1B         6.7996   -0.0943   -4.0688 O.co2     1 ACP        -0.8958
      7 O2B         5.7410   -0.8407   -1.7624 O.co2     1 ACP        -0.8958
      8 C3B         6.5296   -2.7406   -3.5306 C.3       1 ACP        -0.5612
      9 PA          3.3324   -0.0529   -4.3266 P.3       1 ACP         1.6019
     10 O1A         2.0985   -0.7700   -4.8296 O.co2     1 ACP        -0.9040
     11 O2A         3.9793    1.0390   -5.1511 O.co2     1 ACP        -0.9040
     12 O3A         4.4675   -1.1702   -3.9660 O.3       1 ACP        -0.8156
     13 O5'         3.0198    0.5138   -2.8245 O.3       1 ACP        -0.5465
     14 C5'         2.2816   -0.2918   -1.9206 C.3       1 ACP         0.2108
     15 C4'         2.7248    0.0226   -0.4980 C.3       1 ACP         0.0552
     16 O4'         2.4697    1.4219   -0.2462 O.3       1 ACP        -0.3428
     17 C3'         1.9404   -0.7419    0.5596 C.3       1 ACP         0.0750
     18 O3'         2.7418   -0.8086    1.7389 O.3       1 ACP        -0.6066
     19 C2'         0.7477    0.1630    0.7858 C.3       1 ACP         0.1185
     20 O2'         0.1373   -0.0577    2.0407 O.3       1 ACP        -0.5858
     21 C1'         1.3733    1.5427    0.6747 C.3       1 ACP         0.3826
     22 N9          0.4520    2.5240    0.1767 N.pl3     1 ACP        -0.5729
     23 C8         -0.5899    2.3466   -0.6224 C.ar      1 ACP         0.3288
     24 N7         -1.2514    3.4689   -0.8989 N.pl3     1 ACP        -0.5338
     25 C5         -0.5826    4.4323   -0.2272 C.ar      1 ACP        -0.2581
     26 C6         -0.7636    5.7789   -0.1086 C.ar      1 ACP         0.7413
     27 N6         -1.8382    6.3927   -0.7843 N.pl3     1 ACP        -0.9512
     28 N1          0.0741    6.5233    0.6461 N.ar      1 ACP        -0.7699
     29 C2          1.0845    5.8486    1.2626 C.ar      1 ACP         0.6898
     30 N3          1.3516    4.5236    1.2116 N.ar      1 ACP        -0.6800
     31 C4          0.4827    3.8546    0.4481 C.ar      1 ACP         0.6129
     32 HOG3        5.9978   -4.5796   -0.5073 H         1 ACP         0.4199
     33 H3B1        6.4808   -2.9165   -4.6110 H         1 ACP         0.0672
     34 H3B2        7.5877   -2.7422   -3.2461 H         1 ACP         0.0672
     35 H5'1        1.2153   -0.0781   -2.0454 H         1 ACP         0.0277
     36 H5'2        2.4645   -1.3454   -2.1547 H         1 ACP         0.0277
     37 H4'         3.8050   -0.1388   -0.4008 H         1 ACP         0.1249
     38 H3'         1.6784   -1.7629    0.2714 H         1 ACP         0.0564
     39 HO3'        2.2232   -1.2979    2.3953 H         1 ACP         0.4511
     40 H2'        -0.0011    0.0027    0.0003 H         1 ACP         0.0716
     41 HO2'       -0.6141    0.5574    2.1082 H         1 ACP         0.4454
     42 H1'         1.7826    1.9024    1.6451 H         1 ACP         0.1310
     43 H8         -0.8833    1.3888   -1.0158 H         1 ACP         0.3565
     44 HN61       -2.4225    5.8385   -1.3773 H         1 ACP         0.4414
     45 HN62       -1.9421    7.3862   -0.7348 H         1 ACP         0.4414
     46 H2          1.7546    6.4491    1.8670 H         1 ACP         0.0676
     47 H47        -2.0705    3.5612   -1.4834 H         1 ACP         0.5052
@<TRIPOS>BOND
     1    1    2 2
     2    1    3 1
     3    1    4 1
     4    1    8 1
     5    4   32 1
     6    5    6 2
     7    5    7 1
     8    5    8 1
     9    5   12 1
    10    8   33 1
    11    8   34 1
    12    9   10 2
    13    9   11 1
    14    9   12 1
    15    9   13 1
    16   13   14 1
    17   14   15 1
    18   14   35 1
    19   14   36 1
    20   15   16 1
    21   15   17 1
    22   15   37 1
    23   16   21 1
    24   17   18 1
    25   17   19 1
    26   17   38 1
    27   18   39 1
    28   19   20 1
    29   19   21 1
    30   19   40 1
    31   20   41 1
    32   21   22 1
    33   21   42 1
    34   22   23 ar
    35   22   31 ar
    36   23   24 ar
    37   23   43 1
    38   24   25 ar
    39   24   47 1
    40   25   26 ar
    41   25   31 ar
    42   26   27 1
    43   26   28 ar
    44   27   44 1
    45   27   45 1
    46   28   29 ar
    47   29   30 ar
    48   29   46 1
    49   30   31 ar
@<TRIPOS>SUBSTRUCTURE
     1 ACP         1 GROUP 0 A     ****
@<TRIPOS>MOLECULE
[[5-(6-amino-7,8-dihydropurin-8-ylium-9-yl)-3,4-dihydroxy-tetrahydrofuran-2-yl]methoxy-oxido-phosphoryl]oxy-[[hydroxy(oxido)phosphoryl]methyl]phosphinate
   47    49     1     0     0
SMALL
USER_CHARGES

@<TRIPOS>ATOM
      1 PG         -0.7696   -1.5853   -5.2862 P.3       1 ACP         1.3755
      2 O1G         0.0739   -1.8441   -4.0597 O.co2     1 ACP        -0.8970
      3 O2G        -1.5890   -2.6728   -5.9420 O.co2     1 ACP        -0.8970
      4 O3G        -1.7120   -0.2792   -5.0299 O.3       1 ACP        -0.7959
      5 PB          1.2661    0.7115   -6.3614 P.3       1 ACP         1.5194
      6 O1B         0.2513    1.8037   -6.1166 O.co2     1 ACP        -0.8958
      7 O2B         2.2826    0.7934   -7.4769 O.co2     1 ACP        -0.8958
      8 C3B         0.3342   -0.8686   -6.5824 C.3       1 ACP        -0.5612
      9 PA          2.9215    1.2532   -3.9587 P.3       1 ACP         1.6019
     10 O1A         2.0230    2.2933   -3.3258 O.co2     1 ACP        -0.9040
     11 O2A         4.1836    1.6642   -4.6857 O.co2     1 ACP        -0.9040
     12 O3A         2.0199    0.3363   -4.9653 O.3       1 ACP        -0.8156
     13 O5'         3.2883    0.1336   -2.8242 O.3       1 ACP        -0.5465
     14 C5'         2.2816   -0.2918   -1.9206 C.3       1 ACP         0.2108
     15 C4'         2.7248    0.0226   -0.4980 C.3       1 ACP         0.0552
     16 O4'         2.4697    1.4219   -0.2462 O.3       1 ACP        -0.3428
     17 C3'         1.9404   -0.7419    0.5596 C.3       1 ACP         0.0750
     18 O3'         2.7418   -0.8086    1.7389 O.3       1 ACP        -0.6066
     19 C2'         0.7477    0.1630    0.7858 C.3       1 ACP         0.1185
     20 O2'         0.1373   -0.0577    2.0407 O.3       1 ACP        -0.5858
     21 C1'         1.3733    1.5427    0.6747 C.3       1 ACP         0.3826
     22 N9          0.4520    2.5240    0.1767 N.pl3     1 ACP        -0.5729
     23 C8         -0.8602    2.5861    0.3496 C.ar      1 ACP         0.3288
     24 N7         -1.4308    3.6326   -0.2443 N.pl3     1 ACP        -0.5338
     25 C5         -0.4080    4.2856   -0.8394 C.ar      1 ACP        -0.2581
     26 C6         -0.3432    5.4196   -1.5943 C.ar      1 ACP         0.7413
     27 N6         -1.5276    6.1333   -1.8702 N.pl3     1 ACP        -0.9512
     28 N1          0.8395    5.8603   -2.0764 N.ar      1 ACP        -0.7699
     29 C2          1.9319    5.1095   -1.7617 C.ar      1 ACP         0.6898
     30 N3          1.9773    3.9761   -1.0249 N.ar      1 ACP        -0.6800
     31 C4          0.7724    3.6031   -0.5836 C.ar      1 ACP         0.6129
     32 HOG3       -2.3509   -0.3021   -4.2859 H         1 ACP         0.4199
     33 H3B1       -0.2892   -0.7398   -7.4742 H         1 ACP         0.0672
     34 H3B2        1.0831   -1.6341   -6.8142 H         1 ACP         0.0672
     35 H5'1        1.3500    0.2325   -2.1560 H         1 ACP         0.0277
     36 H5'2        2.1267   -1.3683   -2.0444 H         1 ACP         0.0277
     37 H4'         3.8050   -0.1388   -0.4008 H         1 ACP         0.1249
     38 H3'         1.6784   -1.7629    0.2714 H         1 ACP         0.0564
     39 HO3'        2.2232   -1.2979    2.3953 H         1 ACP         0.4511
     40 H2'        -0.0011    0.0027    0.0003 H         1 ACP         0.0716
     41 HO2'       -0.1563   -0.9855    2.0596 H         1 ACP         0.4454
     42 H1'         1.7826    1.9024    1.6451 H         1 ACP         0.1310
     43 H8         -1.4217    1.8638    0.9164 H         1 ACP         0.3565
     44 HN61       -2.4023    5.7711   -1.5477 H         1 ACP         0.4414
     45 HN62       -1.4857    6.9379   -2.4627 H         1 ACP         0.4414
     46 H2          2.8789    5.4660   -2.1503 H         1 ACP         0.0676
     47 H47        -2.4129    3.8706   -0.2402 H         1 ACP         0.5052
@<TRIPOS>BOND
     1    1    2 2
     2    1    3 1
     3    1    4 1
     4    1    8 1
     5    4   32 1
     6    5    6 2
     7    5    7 1
     8    5    8 1
     9    5   12 1
    10    8   33 1
    11    8   34 1
    12    9   10 2
    13    9   11 1
    14    9   12 1
    15    9   13 1
    16   13   14 1
    17   14   15 1
    18   14   35 1
    19   14   36 1
    20   15   16 1
    21   15   17 1
    22   15   37 1
    23   16   21 1
    24   17   18 1
    25   17   19 1
    26   17   38 1
    27   18   39 1
    28   19   20 1
    29   19   21 1
    30   19   40 1
    31   20   41 1
    32   21   22 1
    33   21   42 1
    34   22   23 ar
    35   22   31 ar
    36   23   24 ar
    37   23   43 1
    38   24   25 ar
    39   24   47 1
    40   25   26 ar
    41   25   31 ar
    42   26   27 1
    43   26   28 ar
    44   27   44 1
    45   27   45 1
    46   28   29 ar
    47   29   30 ar
    48   29   46 1
    49   30   31 ar
@<TRIPOS>SUBSTRUCTURE
     1 ACP         1 GROUP 0 A     ****
@<TRIPOS>MOLECULE
[[5-(6-amino-7,8-dihydropurin-8-ylium-9-yl)-3,4-dihydroxy-tetrahydrofuran-2-yl]methoxy-oxido-phosphoryl]oxy-[[hydroxy(oxido)phosphoryl]methyl]phosphinate
   47    49     1     0     0
SMALL
USER_CHARGES

@<TRIPOS>ATOM
      1 PG          2.1361   -2.5009   -7.9574 P.3       1 ACP         1.3755
      2 O1G         1.3994   -3.6941   -8.5196 O.co2     1 ACP        -0.8970
      3 O2G         3.5277   -2.6152   -7.3789 O.co2     1 ACP        -0.8970
      4 O3G         2.1001   -1.2822   -9.0406 O.3       1 ACP        -0.7959
      5 PB          1.5457   -0.2441   -5.6916 P.3       1 ACP         1.5194
      6 O1B         0.4115    0.0653   -4.7426 O.co2     1 ACP        -0.8958
      7 O2B         2.0743    0.7765   -6.6731 O.co2     1 ACP        -0.8958
      8 C3B         1.0610   -1.7398   -6.6623 C.3       1 ACP        -0.5612
      9 PA          3.9534   -0.2075   -3.9573 P.3       1 ACP         1.6019
     10 O1A         4.6225    0.8729   -4.7788 O.co2     1 ACP        -0.9040
     11 O2A         4.7732   -1.3027   -3.3100 O.co2     1 ACP        -0.9040
     12 O3A         2.7896   -0.9020   -4.8683 O.3       1 ACP        -0.8156
     13 O5'         3.0198    0.5138   -2.8245 O.3       1 ACP        -0.5465
     14 C5'         2.2816   -0.2918   -1.9206 C.3       1 ACP         0.2108
     15 C4'         2.7248    0.0226   -0.4980 C.3       1 ACP         0.0552
     16 O4'         2.4697    1.4219   -0.2462 O.3       1 ACP        -0.3428
     17 C3'         1.9404   -0.7419    0.5596 C.3       1 ACP         0.0750
     18 O3'         2.7418   -0.8086    1.7389 O.3       1 ACP        -0.6066
     19 C2'         0.7477    0.1630    0.7858 C.3       1 ACP         0.1185
     20 O2'         0.1373   -0.0577    2.0407 O.3       1 ACP        -0.5858
     21 C1'         1.3733    1.5427    0.6747 C.3       1 ACP         0.3826
     22 N9          0.4520    2.5240    0.1767 N.pl3     1 ACP        -0.5729
     23 C8         -0.8602    2.5861    0.3496 C.ar      1 ACP         0.3288
     24 N7         -1.4308    3.6326   -0.2443 N.pl3     1 ACP        -0.5338
     25 C5         -0.4080    4.2856   -0.8394 C.ar      1 ACP        -0.2581
     26 C6         -0.3432    5.4196   -1.5943 C.ar      1 ACP         0.7413
     27 N6         -1.5276    6.1333   -1.8702 N.pl3     1 ACP        -0.9512
     28 N1          0.8395    5.8603   -2.0764 N.ar      1 ACP        -0.7699
     29 C2          1.9319    5.1095   -1.7617 C.ar      1 ACP         0.6898
     30 N3          1.9773    3.9761   -1.0249 N.ar      1 ACP        -0.6800
     31 C4          0.7724    3.6031   -0.5836 C.ar      1 ACP         0.6129
     32 HOG3        2.4989   -1.4300   -9.9245 H         1 ACP         0.4199
     33 H3B1        0.8583   -2.5317   -5.9328 H         1 ACP         0.0672
     34 H3B2        0.1113   -1.4923   -7.1495 H         1 ACP         0.0672
     35 H5'1        1.2153   -0.0781   -2.0454 H         1 ACP         0.0277
     36 H5'2        2.4645   -1.3454   -2.1547 H         1 ACP         0.0277
     37 H4'         3.8050   -0.1388   -0.4008 H         1 ACP         0.1249
     38 H3'         1.6784   -1.7629    0.2714 H         1 ACP         0.0564
     39 HO3'        3.5554   -1.2733    1.4914 H         1 ACP         0.4511
     40 H2'        -0.0011    0.0027    0.0003 H         1 ACP         0.0716
     41 HO2'        0.8082    0.1199    2.7232 H         1 ACP         0.4454
     42 H1'         1.7826    1.9024    1.6451 H         1 ACP         0.1310
     43 H8         -1.4217    1.8638    0.9164 H         1 ACP         0.3565
     44 HN61       -2.4023    5.7711   -1.5477 H         1 ACP         0.4414
     45 HN62       -1.4857    6.9379   -2.4627 H         1 ACP         0.4414
     46 H2          2.8789    5.4660   -2.1503 H         1 ACP         0.0676
     47 H47        -2.4129    3.8706   -0.2402 H         1 ACP         0.5052
@<TRIPOS>BOND
     1    1    2 2
     2    1    3 1
     3    1    4 1
     4    1    8 1
     5    4   32 1
     6    5    6 2
     7    5    7 1
     8    5    8 1
     9    5   12 1
    10    8   33 1
    11    8   34 1
    12    9   10 2
    13    9   11 1
    14    9   12 1
    15    9   13 1
    16   13   14 1
    17   14   15 1
    18   14   35 1
    19   14   36 1
    20   15   16 1
    21   15   17 1
    22   15   37 1
    23   16   21 1
    24   17   18 1
    25   17   19 1
    26   17   38 1
    27   18   39 1
    28   19   20 1
    29   19   21 1
    30   19   40 1
    31   20   41 1
    32   21   22 1
    33   21   42 1
    34   22   23 ar
    35   22   31 ar
    36   23   24 ar
    37   23   43 1
    38   24   25 ar
    39   24   47 1
    40   25   26 ar
    41   25   31 ar
    42   26   27 1
    43   26   28 ar
    44   27   44 1
    45   27   45 1
    46   28   29 ar
    47   29   30 ar
    48   29   46 1
    49   30   31 ar
@<TRIPOS>SUBSTRUCTURE
     1 ACP         1 GROUP 0 A     ****
@<TRIPOS>MOLECULE
[[5-(6-amino-7,8-dihydropurin-8-ylium-9-yl)-3,4-dihydroxy-tetrahydrofuran-2-yl]methoxy-oxido-phosphoryl]oxy-[[hydroxy(oxido)phosphoryl]methyl]phosphinate
   47    49     1     0     0
SMALL
USER_CHARGES

@<TRIPOS>ATOM
      1 PG          1.5545   -2.5282   -6.7473 P.3       1 ACP         1.3755
      2 O1G         0.2908   -3.1927   -7.2419 O.co2     1 ACP        -0.8970
      3 O2G         2.5731   -1.9346   -7.6929 O.co2     1 ACP        -0.8970
      4 O3G         1.1768   -1.4304   -5.6019 O.3       1 ACP        -0.7959
      5 PB          4.0470   -3.3743   -4.8377 P.3       1 ACP         1.5194
      6 O1B         5.0546   -3.0549   -5.9173 O.co2     1 ACP        -0.8958
      7 O2B         4.2812   -4.4627   -3.8155 O.co2     1 ACP        -0.8958
      8 C3B         2.4404   -3.7420   -5.6731 C.3       1 ACP        -0.5612
      9 PA          4.4771   -0.9086   -3.2433 P.3       1 ACP         1.6019
     10 O1A         5.4067   -0.2050   -4.2080 O.co2     1 ACP        -0.9040
     11 O2A         5.0200   -1.5784   -1.9995 O.co2     1 ACP        -0.9040
     12 O3A         3.5986   -2.0028   -4.0787 O.3       1 ACP        -0.8156
     13 O5'         3.2883    0.1336   -2.8242 O.3       1 ACP        -0.5465
     14 C5'         2.2816   -0.2918   -1.9206 C.3       1 ACP         0.2108
     15 C4'         2.7248    0.0226   -0.4980 C.3       1 ACP         0.0552
     16 O4'         2.4697    1.4219   -0.2462 O.3       1 ACP        -0.3428
     17 C3'         1.9404   -0.7419    0.5596 C.3       1 ACP         0.0750
     18 O3'         2.7418   -0.8086    1.7389 O.3       1 ACP        -0.6066
     19 C2'         0.7477    0.1630    0.7858 C.3       1 ACP         0.1185
     20 O2'         0.1373   -0.0577    2.0407 O.3       1 ACP        -0.5858
     21 C1'         1.3733    1.5427    0.6747 C.3       1 ACP         0.3826
     22 N9          0.4520    2.5240    0.1767 N.pl3     1 ACP        -0.5729
     23 C8         -0.8602    2.5861    0.3496 C.ar      1 ACP         0.3288
     24 N7         -1.4308    3.6326   -0.2443 N.pl3     1 ACP        -0.5338
     25 C5         -0.4080    4.2856   -0.8394 C.ar      1 ACP        -0.2581
     26 C6         -0.3432    5.4196   -1.5943 C.ar      1 ACP         0.7413
     27 N6         -1.5276    6.1333   -1.8702 N.pl3     1 ACP        -0.9512
     28 N1          0.8395    5.8603   -2.0764 N.ar      1 ACP        -0.7699
     29 C2          1.9319    5.1095   -1.7617 C.ar      1 ACP         0.6898
     30 N3          1.9773    3.9761   -1.0249 N.ar      1 ACP        -0.6800
     31 C4          0.7724    3.6031   -0.5836 C.ar      1 ACP         0.6129
     32 HOG3        0.5809   -0.6894   -5.8426 H         1 ACP         0.4199
     33 H3B1        2.6084   -4.6296   -6.2931 H         1 ACP         0.0672
     34 H3B2        1.7415   -4.0253   -4.8783 H         1 ACP         0.0672
     35 H5'1        1.3500    0.2325   -2.1560 H         1 ACP         0.0277
     36 H5'2        2.1267   -1.3683   -2.0444 H         1 ACP         0.0277
     37 H4'         3.8050   -0.1388   -0.4008 H         1 ACP         0.1249
     38 H3'         1.6784   -1.7629    0.2714 H         1 ACP         0.0564
     39 HO3'        2.2232   -1.2979    2.3953 H         1 ACP         0.4511
     40 H2'        -0.0011    0.0027    0.0003 H         1 ACP         0.0716
     41 HO2'       -0.1563   -0.9855    2.0596 H         1 ACP         0.4454
     42 H1'         1.7826    1.9024    1.6451 H         1 ACP         0.1310
     43 H8         -1.4217    1.8638    0.9164 H         1 ACP         0.3565
     44 HN61       -2.4023    5.7711   -1.5477 H         1 ACP         0.4414
     45 HN62       -1.4857    6.9379   -2.4627 H         1 ACP         0.4414
     46 H2          2.8789    5.4660   -2.1503 H         1 ACP         0.0676
     47 H47        -2.4129    3.8706   -0.2402 H         1 ACP         0.5052
@<TRIPOS>BOND
     1    1    2 2
     2    1    3 1
     3    1    4 1
     4    1    8 1
     5    4   32 1
     6    5    6 2
     7    5    7 1
     8    5    8 1
     9    5   12 1
    10    8   33 1
    11    8   34 1
    12    9   10 2
    13    9   11 1
    14    9   12 1
    15    9   13 1
    16   13   14 1
    17   14   15 1
    18   14   35 1
    19   14   36 1
    20   15   16 1
    21   15   17 1
    22   15   37 1
    23   16   21 1
    24   17   18 1
    25   17   19 1
    26   17   38 1
    27   18   39 1
    28   19   20 1
    29   19   21 1
    30   19   40 1
    31   20   41 1
    32   21   22 1
    33   21   42 1
    34   22   23 ar
    35   22   31 ar
    36   23   24 ar
    37   23   43 1
    38   24   25 ar
    39   24   47 1
    40   25   26 ar
    41   25   31 ar
    42   26   27 1
    43   26   28 ar
    44   27   44 1
    45   27   45 1
    46   28   29 ar
    47   29   30 ar
    48   29   46 1
    49   30   31 ar
@<TRIPOS>SUBSTRUCTURE
     1 ACP         1 GROUP 0 A     ****
@<TRIPOS>MOLECULE
[[5-(6-amino-7,8-dihydropurin-8-ylium-9-yl)-3,4-dihydroxy-tetrahydrofuran-2-yl]methoxy-oxido-phosphoryl]oxy-[[hydroxy(oxido)phosphoryl]methyl]phosphinate
   47    49     1     0     0
SMALL
USER_CHARGES

@<TRIPOS>ATOM
      1 PG         -5.0696   -4.6539    5.2715 P.3       1 ACP         1.3755
      2 O1G        -6.2201   -5.2005    6.0842 O.co2     1 ACP        -0.8970
      3 O2G        -4.4364   -5.4390    4.1460 O.co2     1 ACP        -0.8970
      4 O3G        -5.4431   -3.1571    4.7424 O.3       1 ACP        -0.7959
      5 PB         -2.1067   -3.4764    5.9119 P.3       1 ACP         1.5194
      6 O1B        -1.2826   -3.2387    7.1557 O.co2     1 ACP        -0.8958
      7 O2B        -2.4108   -2.3725    4.9253 O.co2     1 ACP        -0.8958
      8 C3B        -3.7228   -4.1934    6.4489 C.3       1 ACP        -0.5612
      9 PA         -0.0671   -5.0728    4.4633 P.3       1 ACP         1.6019
     10 O1A        -0.1384   -6.3712    3.6896 O.co2     1 ACP        -0.9040
     11 O2A         0.9807   -4.8715    5.5366 O.co2     1 ACP        -0.9040
     12 O3A        -1.5362   -4.7780    5.1128 O.3       1 ACP        -0.8156
     13 O5'         0.0099   -3.8403    3.3910 O.3       1 ACP        -0.5465
     14 C5'        -0.7840   -3.8935    2.2172 C.3       1 ACP         0.2108
     15 C4'        -0.0724   -3.1466    1.1027 C.3       1 ACP         0.0552
     16 O4'        -0.8674   -3.1929   -0.0945 O.3       1 ACP        -0.3428
     17 C3'         0.1338   -1.6715    1.4027 C.3       1 ACP         0.0750
     18 O3'         1.2893   -1.4445    2.1808 O.3       1 ACP        -0.6066
     19 C2'         0.2158   -1.0724    0.0128 C.3       1 ACP         0.1185
     20 O2'         1.5141   -1.2448   -0.5513 O.3       1 ACP        -0.5858
     21 C1'        -0.7897   -1.9176   -0.7583 C.3       1 ACP         0.3826
     22 N9         -2.1040   -1.3333   -0.7704 N.pl3     1 ACP        -0.5729
     23 C8         -3.2304   -1.8262   -0.2767 C.ar      1 ACP         0.3288
     24 N7         -4.2847   -1.0309   -0.4481 N.pl3     1 ACP        -0.5338
     25 C5         -3.7951    0.0479   -1.0985 C.ar      1 ACP        -0.2581
     26 C6         -4.3691    1.1983   -1.5536 C.ar      1 ACP         0.7413
     27 N6         -5.7501    1.4047   -1.3573 N.pl3     1 ACP        -0.9512
     28 N1         -3.6289    2.1345   -2.1869 N.ar      1 ACP        -0.7699
     29 C2         -2.3041    1.8525   -2.3333 C.ar      1 ACP         0.6898
     30 N3         -1.6387    0.7492   -1.9218 N.ar      1 ACP        -0.6800
     31 C4         -2.4348   -0.1293   -1.3053 C.ar      1 ACP         0.6129
     32 HOG3       -6.2308   -3.0468    4.1684 H         1 ACP         0.4199
     33 H3B1       -3.4876   -5.1036    7.0115 H         1 ACP         0.0672
     34 H3B2       -4.1555   -3.4752    7.1542 H         1 ACP         0.0672
     35 H5'1       -0.9358   -4.9414    1.9395 H         1 ACP         0.0277
     36 H5'2       -1.7558   -3.4349    2.4258 H         1 ACP         0.0277
     37 H4'         0.8886   -3.6447    0.8779 H         1 ACP         0.1249
     38 H3'        -0.7373   -1.2359    1.9870 H         1 ACP         0.0564
     39 HO3'        1.1626   -1.9325    3.0084 H         1 ACP         0.4511
     40 H2'        -0.0384   -0.0310    0.0096 H         1 ACP         0.0716
     41 HO2'        2.1463   -0.7958    0.0370 H         1 ACP         0.4454
     42 H1'        -0.4769   -2.1002   -1.8093 H         1 ACP         0.1310
     43 H8         -3.2974   -2.7789    0.2194 H         1 ACP         0.3565
     44 HN61       -6.2956    0.6838   -0.9296 H         1 ACP         0.4414
     45 HN62       -6.1788    2.2266   -1.7327 H         1 ACP         0.4414
     46 H2         -1.7135    2.6057   -2.8421 H         1 ACP         0.0676
     47 H47        -5.2337   -1.2102   -0.1507 H         1 ACP         0.5052
@<TRIPOS>BOND
     1    1    2 2
     2    1    3 1
     3    1    4 1
     4    1    8 1
     5    4   32 1
     6    5    6 2
     7    5    7 1
     8    5    8 1
     9    5   12 1
    10    8   33 1
    11    8   34 1
    12    9   10 2
    13    9   11 1
    14    9   12 1
    15    9   13 1
    16   13   14 1
    17   14   15 1
    18   14   35 1
    19   14   36 1
    20   15   16 1
    21   15   17 1
    22   15   37 1
    23   16   21 1
    24   17   18 1
    25   17   19 1
    26   17   38 1
    27   18   39 1
    28   19   20 1
    29   19   21 1
    30   19   40 1
    31   20   41 1
    32   21   22 1
    33   21   42 1
    34   22   23 ar
    35   22   31 ar
    36   23   24 ar
    37   23   43 1
    38   24   25 ar
    39   24   47 1
    40   25   26 ar
    41   25   31 ar
    42   26   27 1
    43   26   28 ar
    44   27   44 1
    45   27   45 1
    46   28   29 ar
    47   29   30 ar
    48   29   46 1
    49   30   31 ar
@<TRIPOS>SUBSTRUCTURE
     1 ACP         1 GROUP 0 A     ****
@<TRIPOS>MOLECULE
[[5-(6-amino-7,8-dihydropurin-8-ylium-9-yl)-3,4-dihydroxy-tetrahydrofuran-2-yl]methoxy-oxido-phosphoryl]oxy-[[hydroxy(oxido)phosphoryl]methyl]phosphinate
   47    49     1     0     0
SMALL
USER_CHARGES

@<TRIPOS>ATOM
      1 PG          2.3614   -4.5749   -3.6305 P.3       1 ACP         1.3755
      2 O1G         3.0355   -4.4528   -2.2838 O.co2     1 ACP        -0.8970
      3 O2G         2.6820   -3.6438   -4.7769 O.co2     1 ACP        -0.8970
      4 O3G         2.4568   -6.1192   -4.1461 O.3       1 ACP        -0.7959
      5 PB         -0.3111   -3.0508   -2.5767 P.3       1 ACP         1.5194
      6 O1B         0.2672   -2.8766   -1.1918 O.co2     1 ACP        -0.8958
      7 O2B        -1.7942   -3.2196   -2.8136 O.co2     1 ACP        -0.8958
      8 C3B         0.5370   -4.4983   -3.3511 C.3       1 ACP        -0.5612
      9 PA          0.1597   -0.2651   -3.4849 P.3       1 ACP         1.6019
     10 O1A        -1.2995    0.1091   -3.3420 O.co2     1 ACP        -0.9040
     11 O2A         1.0029    0.3283   -4.5928 O.co2     1 ACP        -0.9040
     12 O3A         0.2694   -1.8925   -3.5663 O.3       1 ACP        -0.8156
     13 O5'         0.8970   -0.0132   -2.0468 O.3       1 ACP        -0.5465
     14 C5'         2.2816   -0.2918   -1.9206 C.3       1 ACP         0.2108
     15 C4'         2.7248    0.0226   -0.4980 C.3       1 ACP         0.0552
     16 O4'         2.4697    1.4219   -0.2462 O.3       1 ACP        -0.3428
     17 C3'         1.9404   -0.7419    0.5596 C.3       1 ACP         0.0750
     18 O3'         2.7418   -0.8086    1.7389 O.3       1 ACP        -0.6066
     19 C2'         0.7477    0.1630    0.7858 C.3       1 ACP         0.1185
     20 O2'         0.1373   -0.0577    2.0407 O.3       1 ACP        -0.5858
     21 C1'         1.3733    1.5427    0.6747 C.3       1 ACP         0.3826
     22 N9          0.4520    2.5240    0.1767 N.pl3     1 ACP        -0.5729
     23 C8          0.1928    2.8484   -1.0815 C.ar      1 ACP         0.3288
     24 N7         -0.7248    3.8048   -1.2110 N.pl3     1 ACP        -0.5338
     25 C5         -1.0765    4.1129    0.0571 C.ar      1 ACP        -0.2581
     26 C6         -1.9614    5.0063    0.5851 C.ar      1 ACP         0.7413
     27 N6         -2.7145    5.8254   -0.2810 N.pl3     1 ACP        -0.9512
     28 N1         -2.1199    5.1113    1.9228 N.ar      1 ACP        -0.7699
     29 C2         -1.3522    4.2822    2.6839 C.ar      1 ACP         0.6898
     30 N3         -0.4501    3.3660    2.2638 N.ar      1 ACP        -0.6800
     31 C4         -0.3487    3.3198    0.9322 C.ar      1 ACP         0.6129
     32 HOG3        3.3449   -6.5160   -4.2728 H         1 ACP         0.4199
     33 H3B1        0.2875   -5.3703   -2.7365 H         1 ACP         0.0672
     34 H3B2        0.0642   -4.6409   -4.3292 H         1 ACP         0.0672
     35 H5'1        2.4525   -1.3484   -2.1500 H         1 ACP         0.0277
     36 H5'2        2.8335    0.3232   -2.6384 H         1 ACP         0.0277
     37 H4'         3.8050   -0.1388   -0.4008 H         1 ACP         0.1249
     38 H3'         1.6784   -1.7629    0.2714 H         1 ACP         0.0564
     39 HO3'        3.5554   -1.2733    1.4914 H         1 ACP         0.4511
     40 H2'        -0.0011    0.0027    0.0003 H         1 ACP         0.0716
     41 HO2'       -0.6141    0.5574    2.1082 H         1 ACP         0.4454
     42 H1'         1.7826    1.9024    1.6451 H         1 ACP         0.1310
     43 H8          0.6728    2.3873   -1.9272 H         1 ACP         0.3565
     44 HN61       -2.5537    5.7714   -1.2667 H         1 ACP         0.4414
     45 HN62       -3.3283    6.5126    0.1080 H         1 ACP         0.4414
     46 H2         -1.4818    4.3694    3.7565 H         1 ACP         0.0676
     47 H47        -1.0701    4.2005   -2.0743 H         1 ACP         0.5052
@<TRIPOS>BOND
     1    1    2 2
     2    1    3 1
     3    1    4 1
     4    1    8 1
     5    4   32 1
     6    5    6 2
     7    5    7 1
     8    5    8 1
     9    5   12 1
    10    8   33 1
    11    8   34 1
    12    9   10 2
    13    9   11 1
    14    9   12 1
    15    9   13 1
    16   13   14 1
    17   14   15 1
    18   14   35 1
    19   14   36 1
    20   15   16 1
    21   15   17 1
    22   15   37 1
    23   16   21 1
    24   17   18 1
    25   17   19 1
    26   17   38 1
    27   18   39 1
    28   19   20 1
    29   19   21 1
    30   19   40 1
    31   20   41 1
    32   21   22 1
    33   21   42 1
    34   22   23 ar
    35   22   31 ar
    36   23   24 ar
    37   23   43 1
    38   24   25 ar
    39   24   47 1
    40   25   26 ar
    41   25   31 ar
    42   26   27 1
    43   26   28 ar
    44   27   44 1
    45   27   45 1
    46   28   29 ar
    47   29   30 ar
    48   29   46 1
    49   30   31 ar
@<TRIPOS>SUBSTRUCTURE
     1 ACP         1 GROUP 0 A     ****
@<TRIPOS>MOLECULE
[[5-(6-amino-7,8-dihydropurin-8-ylium-9-yl)-3,4-dihydroxy-tetrahydrofuran-2-yl]methoxy-oxido-phosphoryl]oxy-[[hydroxy(oxido)phosphoryl]methyl]phosphinate
   47    49     1     0     0
SMALL
USER_CHARGES

@<TRIPOS>ATOM
      1 PG          3.7793   -7.4741    2.2296 P.3       1 ACP         1.3755
      2 O1G         5.2007   -6.9688    2.1462 O.co2     1 ACP        -0.8970
      3 O2G         2.7395   -7.1231    1.1905 O.co2     1 ACP        -0.8970
      4 O3G         3.7909   -9.0889    2.4580 O.3       1 ACP        -0.7959
      5 PB          1.3890   -7.3762    4.4324 P.3       1 ACP         1.5194
      6 O1B         1.2195   -6.8033    5.8201 O.co2     1 ACP        -0.8958
      7 O2B         1.1483   -8.8374    4.1305 O.co2     1 ACP        -0.8958
      8 C3B         3.1047   -6.9758    3.8755 C.3       1 ACP        -0.5612
      9 PA         -1.0048   -6.4109    2.9679 P.3       1 ACP         1.6019
     10 O1A        -1.7723   -5.8853    4.1614 O.co2     1 ACP        -0.9040
     11 O2A        -1.3819   -7.7301    2.3290 O.co2     1 ACP        -0.9040
     12 O3A         0.5812   -6.4578    3.3543 O.3       1 ACP        -0.8156
     13 O5'        -0.9728   -5.2427    1.8237 O.3       1 ACP        -0.5465
     14 C5'        -0.7840   -3.8935    2.2172 C.3       1 ACP         0.2108
     15 C4'        -0.0724   -3.1466    1.1027 C.3       1 ACP         0.0552
     16 O4'        -0.8674   -3.1929   -0.0945 O.3       1 ACP        -0.3428
     17 C3'         0.1338   -1.6715    1.4027 C.3       1 ACP         0.0750
     18 O3'         1.2893   -1.4445    2.1808 O.3       1 ACP        -0.6066
     19 C2'         0.2158   -1.0724    0.0128 C.3       1 ACP         0.1185
     20 O2'         1.5141   -1.2448   -0.5513 O.3       1 ACP        -0.5858
     21 C1'        -0.7897   -1.9176   -0.7583 C.3       1 ACP         0.3826
     22 N9         -2.1040   -1.3333   -0.7704 N.pl3     1 ACP        -0.5729
     23 C8         -2.8739   -1.0133    0.2593 C.ar      1 ACP         0.3288
     24 N7         -4.0439   -0.4818   -0.0902 N.pl3     1 ACP        -0.5338
     25 C5         -4.0184   -0.4615   -1.4414 C.ar      1 ACP        -0.2581
     26 C6         -4.9120   -0.0399   -2.3814 C.ar      1 ACP         0.7413
     27 N6         -6.1459    0.5018   -1.9665 N.pl3     1 ACP        -0.9512
     28 N1         -4.6250   -0.1374   -3.6981 N.ar      1 ACP        -0.7699
     29 C2         -3.4114   -0.6729   -4.0088 C.ar      1 ACP         0.6898
     30 N3         -2.4579   -1.1190   -3.1595 N.ar      1 ACP        -0.6800
     31 C4         -2.8124   -0.9904   -1.8776 C.ar      1 ACP         0.6129
     32 HOG3        4.2191   -9.6541    1.7803 H         1 ACP         0.4199
     33 H3B1        3.2014   -5.8856    3.9253 H         1 ACP         0.0672
     34 H3B2        3.7767   -7.3989    4.6304 H         1 ACP         0.0672
     35 H5'1       -1.7614   -3.4427    2.4167 H         1 ACP         0.0277
     36 H5'2       -0.1870   -3.8723    3.1344 H         1 ACP         0.0277
     37 H4'         0.8886   -3.6447    0.8779 H         1 ACP         0.1249
     38 H3'        -0.7373   -1.2359    1.9870 H         1 ACP         0.0564
     39 HO3'        1.3408   -0.4870    2.3219 H         1 ACP         0.4511
     40 H2'        -0.0384   -0.0310    0.0096 H         1 ACP         0.0716
     41 HO2'        2.1463   -0.7958    0.0370 H         1 ACP         0.4454
     42 H1'        -0.4769   -2.1002   -1.8093 H         1 ACP         0.1310
     43 H8         -2.5891   -1.1636    1.2862 H         1 ACP         0.3565
     44 HN61       -6.3657    0.5248   -0.9911 H         1 ACP         0.4414
     45 HN62       -6.8193    0.7669   -2.6568 H         1 ACP         0.4414
     46 H2         -3.1848   -0.7497   -5.0660 H         1 ACP         0.0676
     47 H47        -4.7768   -0.1684    0.5309 H         1 ACP         0.5052
@<TRIPOS>BOND
     1    1    2 2
     2    1    3 1
     3    1    4 1
     4    1    8 1
     5    4   32 1
     6    5    6 2
     7    5    7 1
     8    5    8 1
     9    5   12 1
    10    8   33 1
    11    8   34 1
    12    9   10 2
    13    9   11 1
    14    9   12 1
    15    9   13 1
    16   13   14 1
    17   14   15 1
    18   14   35 1
    19   14   36 1
    20   15   16 1
    21   15   17 1
    22   15   37 1
    23   16   21 1
    24   17   18 1
    25   17   19 1
    26   17   38 1
    27   18   39 1
    28   19   20 1
    29   19   21 1
    30   19   40 1
    31   20   41 1
    32   21   22 1
    33   21   42 1
    34   22   23 ar
    35   22   31 ar
    36   23   24 ar
    37   23   43 1
    38   24   25 ar
    39   24   47 1
    40   25   26 ar
    41   25   31 ar
    42   26   27 1
    43   26   28 ar
    44   27   44 1
    45   27   45 1
    46   28   29 ar
    47   29   30 ar
    48   29   46 1
    49   30   31 ar
@<TRIPOS>SUBSTRUCTURE
     1 ACP         1 GROUP 0 A     ****
@<TRIPOS>MOLECULE
[[5-(6-amino-7,8-dihydropurin-8-ylium-9-yl)-3,4-dihydroxy-tetrahydrofuran-2-yl]methoxy-oxido-phosphoryl]oxy-[[hydroxy(oxido)phosphoryl]methyl]phosphinate
   47    49     1     0     0
SMALL
USER_CHARGES

@<TRIPOS>ATOM
      1 PG          1.4787   -3.7857   -5.8477 P.3       1 ACP         1.3755
      2 O1G         0.9618   -4.6015   -7.0097 O.co2     1 ACP        -0.8970
      3 O2G         0.5568   -2.9973   -4.9463 O.co2     1 ACP        -0.8970
      4 O3G         2.4672   -4.7080   -4.9355 O.3       1 ACP        -0.7959
      5 PB          3.6554   -1.4027   -5.4495 P.3       1 ACP         1.5194
      6 O1B         4.5905   -0.6300   -6.3502 O.co2     1 ACP        -0.8958
      7 O2B         4.1474   -2.1531   -4.2333 O.co2     1 ACP        -0.8958
      8 C3B         2.7423   -2.6111   -6.5079 C.3       1 ACP        -0.5612
      9 PA          2.3321    0.9617   -4.2393 P.3       1 ACP         1.6019
     10 O1A         0.8820    1.3039   -3.9746 O.co2     1 ACP        -0.9040
     11 O2A         3.2385    1.9433   -4.9501 O.co2     1 ACP        -0.9040
     12 O3A         2.3890   -0.4639   -5.0338 O.3       1 ACP        -0.8156
     13 O5'         3.0198    0.5138   -2.8245 O.3       1 ACP        -0.5465
     14 C5'         2.2816   -0.2918   -1.9206 C.3       1 ACP         0.2108
     15 C4'         2.7248    0.0226   -0.4980 C.3       1 ACP         0.0552
     16 O4'         2.4697    1.4219   -0.2462 O.3       1 ACP        -0.3428
     17 C3'         1.9404   -0.7419    0.5596 C.3       1 ACP         0.0750
     18 O3'         2.7418   -0.8086    1.7389 O.3       1 ACP        -0.6066
     19 C2'         0.7477    0.1630    0.7858 C.3       1 ACP         0.1185
     20 O2'         0.1373   -0.0577    2.0407 O.3       1 ACP        -0.5858
     21 C1'         1.3733    1.5427    0.6747 C.3       1 ACP         0.3826
     22 N9          0.4520    2.5240    0.1767 N.pl3     1 ACP        -0.5729
     23 C8         -0.5899    2.3466   -0.6224 C.ar      1 ACP         0.3288
     24 N7         -1.2514    3.4689   -0.8989 N.pl3     1 ACP        -0.5338
     25 C5         -0.5826    4.4323   -0.2272 C.ar      1 ACP        -0.2581
     26 C6         -0.7636    5.7789   -0.1086 C.ar      1 ACP         0.7413
     27 N6         -1.8382    6.3927   -0.7843 N.pl3     1 ACP        -0.9512
     28 N1          0.0741    6.5233    0.6461 N.ar      1 ACP        -0.7699
     29 C2          1.0845    5.8486    1.2626 C.ar      1 ACP         0.6898
     30 N3          1.3516    4.5236    1.2116 N.ar      1 ACP        -0.6800
     31 C4          0.4827    3.8546    0.4481 C.ar      1 ACP         0.6129
     32 HOG3        2.1030   -5.5226   -4.5282 H         1 ACP         0.4199
     33 H3B1        2.2358   -2.0250   -7.2828 H         1 ACP         0.0672
     34 H3B2        3.5063   -3.2195   -7.0044 H         1 ACP         0.0672
     35 H5'1        1.2153   -0.0781   -2.0454 H         1 ACP         0.0277
     36 H5'2        2.4645   -1.3454   -2.1547 H         1 ACP         0.0277
     37 H4'         3.8050   -0.1388   -0.4008 H         1 ACP         0.1249
     38 H3'         1.6784   -1.7629    0.2714 H         1 ACP         0.0564
     39 HO3'        3.5554   -1.2733    1.4914 H         1 ACP         0.4511
     40 H2'        -0.0011    0.0027    0.0003 H         1 ACP         0.0716
     41 HO2'       -0.6141    0.5574    2.1082 H         1 ACP         0.4454
     42 H1'         1.7826    1.9024    1.6451 H         1 ACP         0.1310
     43 H8         -0.8833    1.3888   -1.0158 H         1 ACP         0.3565
     44 HN61       -2.4225    5.8385   -1.3773 H         1 ACP         0.4414
     45 HN62       -1.9421    7.3862   -0.7348 H         1 ACP         0.4414
     46 H2          1.7546    6.4491    1.8670 H         1 ACP         0.0676
     47 H47        -2.0705    3.5612   -1.4834 H         1 ACP         0.5052
@<TRIPOS>BOND
     1    1    2 2
     2    1    3 1
     3    1    4 1
     4    1    8 1
     5    4   32 1
     6    5    6 2
     7    5    7 1
     8    5    8 1
     9    5   12 1
    10    8   33 1
    11    8   34 1
    12    9   10 2
    13    9   11 1
    14    9   12 1
    15    9   13 1
    16   13   14 1
    17   14   15 1
    18   14   35 1
    19   14   36 1
    20   15   16 1
    21   15   17 1
    22   15   37 1
    23   16   21 1
    24   17   18 1
    25   17   19 1
    26   17   38 1
    27   18   39 1
    28   19   20 1
    29   19   21 1
    30   19   40 1
    31   20   41 1
    32   21   22 1
    33   21   42 1
    34   22   23 ar
    35   22   31 ar
    36   23   24 ar
    37   23   43 1
    38   24   25 ar
    39   24   47 1
    40   25   26 ar
    41   25   31 ar
    42   26   27 1
    43   26   28 ar
    44   27   44 1
    45   27   45 1
    46   28   29 ar
    47   29   30 ar
    48   29   46 1
    49   30   31 ar
@<TRIPOS>SUBSTRUCTURE
     1 ACP         1 GROUP 0 A     ****
@<TRIPOS>MOLECULE
[[5-(6-amino-7,8-dihydropurin-8-ylium-9-yl)-3,4-dihydroxy-tetrahydrofuran-2-yl]methoxy-oxido-phosphoryl]oxy-[[hydroxy(oxido)phosphoryl]methyl]phosphinate
   47    49     1     0     0
SMALL
USER_CHARGES

@<TRIPOS>ATOM
      1 PG          0.3950   -0.2077   -6.9466 P.3       1 ACP         1.3755
      2 O1G         1.2725    0.2709   -8.0796 O.co2     1 ACP        -0.8970
      3 O2G         0.2863    0.5457   -5.6410 O.co2     1 ACP        -0.8970
      4 O3G        -1.1011   -0.5213   -7.5153 O.3       1 ACP        -0.7959
      5 PB          2.5989   -2.4004   -5.9926 P.3       1 ACP         1.5194
      6 O1B         3.5539   -2.0013   -7.0932 O.co2     1 ACP        -0.8958
      7 O2B         2.5311   -3.8130   -5.4596 O.co2     1 ACP        -0.8958
      8 C3B         0.8968   -1.9394   -6.5442 C.3       1 ACP        -0.5612
      9 PA          3.9989   -0.9668   -3.8036 P.3       1 ACP         1.6019
     10 O1A         5.0247   -0.2515   -4.6555 O.co2     1 ACP        -0.9040
     11 O2A         4.3843   -2.1858   -2.9937 O.co2     1 ACP        -0.9040
     12 O3A         2.7242   -1.3549   -4.7479 O.3       1 ACP        -0.8156
     13 O5'         3.2883    0.1336   -2.8242 O.3       1 ACP        -0.5465
     14 C5'         2.2816   -0.2918   -1.9206 C.3       1 ACP         0.2108
     15 C4'         2.7248    0.0226   -0.4980 C.3       1 ACP         0.0552
     16 O4'         2.4697    1.4219   -0.2462 O.3       1 ACP        -0.3428
     17 C3'         1.9404   -0.7419    0.5596 C.3       1 ACP         0.0750
     18 O3'         2.7418   -0.8086    1.7389 O.3       1 ACP        -0.6066
     19 C2'         0.7477    0.1630    0.7858 C.3       1 ACP         0.1185
     20 O2'         0.1373   -0.0577    2.0407 O.3       1 ACP        -0.5858
     21 C1'         1.3733    1.5427    0.6747 C.3       1 ACP         0.3826
     22 N9          0.4520    2.5240    0.1767 N.pl3     1 ACP        -0.5729
     23 C8         -0.5899    2.3466   -0.6224 C.ar      1 ACP         0.3288
     24 N7         -1.2514    3.4689   -0.8989 N.pl3     1 ACP        -0.5338
     25 C5         -0.5826    4.4323   -0.2272 C.ar      1 ACP        -0.2581
     26 C6         -0.7636    5.7789   -0.1086 C.ar      1 ACP         0.7413
     27 N6         -1.8382    6.3927   -0.7843 N.pl3     1 ACP        -0.9512
     28 N1          0.0741    6.5233    0.6461 N.ar      1 ACP        -0.7699
     29 C2          1.0845    5.8486    1.2626 C.ar      1 ACP         0.6898
     30 N3          1.3516    4.5236    1.2116 N.ar      1 ACP        -0.6800
     31 C4          0.4827    3.8546    0.4481 C.ar      1 ACP         0.6129
     32 HOG3       -1.6056    0.2092   -7.9325 H         1 ACP         0.4199
     33 H3B1        0.6900   -2.5315   -7.4426 H         1 ACP         0.0672
     34 H3B2        0.2170   -2.2879   -5.7588 H         1 ACP         0.0672
     35 H5'1        1.3500    0.2325   -2.1560 H         1 ACP         0.0277
     36 H5'2        2.1267   -1.3683   -2.0444 H         1 ACP         0.0277
     37 H4'         3.8050   -0.1388   -0.4008 H         1 ACP         0.1249
     38 H3'         1.6784   -1.7629    0.2714 H         1 ACP         0.0564
     39 HO3'        2.2232   -1.2979    2.3953 H         1 ACP         0.4511
     40 H2'        -0.0011    0.0027    0.0003 H         1 ACP         0.0716
     41 HO2'       -0.6141    0.5574    2.1082 H         1 ACP         0.4454
     42 H1'         1.7826    1.9024    1.6451 H         1 ACP         0.1310
     43 H8         -0.8833    1.3888   -1.0158 H         1 ACP         0.3565
     44 HN61       -2.4225    5.8385   -1.3773 H         1 ACP         0.4414
     45 HN62       -1.9421    7.3862   -0.7348 H         1 ACP         0.4414
     46 H2          1.7546    6.4491    1.8670 H         1 ACP         0.0676
     47 H47        -2.0705    3.5612   -1.4834 H         1 ACP         0.5052
@<TRIPOS>BOND
     1    1    2 2
     2    1    3 1
     3    1    4 1
     4    1    8 1
     5    4   32 1
     6    5    6 2
     7    5    7 1
     8    5    8 1
     9    5   12 1
    10    8   33 1
    11    8   34 1
    12    9   10 2
    13    9   11 1
    14    9   12 1
    15    9   13 1
    16   13   14 1
    17   14   15 1
    18   14   35 1
    19   14   36 1
    20   15   16 1
    21   15   17 1
    22   15   37 1
    23   16   21 1
    24   17   18 1
    25   17   19 1
    26   17   38 1
    27   18   39 1
    28   19   20 1
    29   19   21 1
    30   19   40 1
    31   20   41 1
    32   21   22 1
    33   21   42 1
    34   22   23 ar
    35   22   31 ar
    36   23   24 ar
    37   23   43 1
    38   24   25 ar
    39   24   47 1
    40   25   26 ar
    41   25   31 ar
    42   26   27 1
    43   26   28 ar
    44   27   44 1
    45   27   45 1
    46   28   29 ar
    47   29   30 ar
    48   29   46 1
    49   30   31 ar
@<TRIPOS>SUBSTRUCTURE
     1 ACP         1 GROUP 0 A     ****
@<TRIPOS>MOLECULE
[[5-(6-amino-7,8-dihydropurin-8-ylium-9-yl)-3,4-dihydroxy-tetrahydrofuran-2-yl]methoxy-oxido-phosphoryl]oxy-[[hydroxy(oxido)phosphoryl]methyl]phosphinate
   47    49     1     0     0
SMALL
USER_CHARGES

@<TRIPOS>ATOM
      1 PG          2.8891   -5.0694   -5.6968 P.3       1 ACP         1.3755
      2 O1G         1.9245   -6.2301   -5.6242 O.co2     1 ACP        -0.8970
      3 O2G         4.1227   -4.9942   -4.8269 O.co2     1 ACP        -0.8970
      4 O3G         3.3080   -4.8095   -7.2515 O.3       1 ACP        -0.7959
      5 PB          2.6814   -1.8362   -5.4163 P.3       1 ACP         1.5194
      6 O1B         1.5741   -0.8418   -5.1559 O.co2     1 ACP        -0.8958
      7 O2B         3.5747   -1.7453   -6.6320 O.co2     1 ACP        -0.8958
      8 C3B         1.9219   -3.5207   -5.4177 C.3       1 ACP        -0.5612
      9 PA          4.4771   -0.9086   -3.2433 P.3       1 ACP         1.6019
     10 O1A         5.4067   -0.2050   -4.2080 O.co2     1 ACP        -0.9040
     11 O2A         5.0200   -1.5784   -1.9995 O.co2     1 ACP        -0.9040
     12 O3A         3.5986   -2.0028   -4.0787 O.3       1 ACP        -0.8156
     13 O5'         3.2883    0.1336   -2.8242 O.3       1 ACP        -0.5465
     14 C5'         2.2816   -0.2918   -1.9206 C.3       1 ACP         0.2108
     15 C4'         2.7248    0.0226   -0.4980 C.3       1 ACP         0.0552
     16 O4'         2.4697    1.4219   -0.2462 O.3       1 ACP        -0.3428
     17 C3'         1.9404   -0.7419    0.5596 C.3       1 ACP         0.0750
     18 O3'         2.7418   -0.8086    1.7389 O.3       1 ACP        -0.6066
     19 C2'         0.7477    0.1630    0.7858 C.3       1 ACP         0.1185
     20 O2'         0.1373   -0.0577    2.0407 O.3       1 ACP        -0.5858
     21 C1'         1.3733    1.5427    0.6747 C.3       1 ACP         0.3826
     22 N9          0.4520    2.5240    0.1767 N.pl3     1 ACP        -0.5729
     23 C8         -0.8602    2.5861    0.3496 C.ar      1 ACP         0.3288
     24 N7         -1.4308    3.6326   -0.2443 N.pl3     1 ACP        -0.5338
     25 C5         -0.4080    4.2856   -0.8394 C.ar      1 ACP        -0.2581
     26 C6         -0.3432    5.4196   -1.5943 C.ar      1 ACP         0.7413
     27 N6         -1.5276    6.1333   -1.8702 N.pl3     1 ACP        -0.9512
     28 N1          0.8395    5.8603   -2.0764 N.ar      1 ACP        -0.7699
     29 C2          1.9319    5.1095   -1.7617 C.ar      1 ACP         0.6898
     30 N3          1.9773    3.9761   -1.0249 N.ar      1 ACP        -0.6800
     31 C4          0.7724    3.6031   -0.5836 C.ar      1 ACP         0.6129
     32 HOG3        3.7490   -5.5338   -7.7445 H         1 ACP         0.4199
     33 H3B1        1.4306   -3.6410   -4.4458 H         1 ACP         0.0672
     34 H3B2        1.1364   -3.5001   -6.1813 H         1 ACP         0.0672
     35 H5'1        1.3500    0.2325   -2.1560 H         1 ACP         0.0277
     36 H5'2        2.1267   -1.3683   -2.0444 H         1 ACP         0.0277
     37 H4'         3.8050   -0.1388   -0.4008 H         1 ACP         0.1249
     38 H3'         1.6784   -1.7629    0.2714 H         1 ACP         0.0564
     39 HO3'        2.2232   -1.2979    2.3953 H         1 ACP         0.4511
     40 H2'        -0.0011    0.0027    0.0003 H         1 ACP         0.0716
     41 HO2'       -0.1563   -0.9855    2.0596 H         1 ACP         0.4454
     42 H1'         1.7826    1.9024    1.6451 H         1 ACP         0.1310
     43 H8         -1.4217    1.8638    0.9164 H         1 ACP         0.3565
     44 HN61       -1.4731    6.9898   -2.3837 H         1 ACP         0.4414
     45 HN62       -2.3893    5.8226   -1.4686 H         1 ACP         0.4414
     46 H2          2.8789    5.4660   -2.1503 H         1 ACP         0.0676
     47 H47        -2.4129    3.8706   -0.2402 H         1 ACP         0.5052
@<TRIPOS>BOND
     1    1    2 2
     2    1    3 1
     3    1    4 1
     4    1    8 1
     5    4   32 1
     6    5    6 2
     7    5    7 1
     8    5    8 1
     9    5   12 1
    10    8   33 1
    11    8   34 1
    12    9   10 2
    13    9   11 1
    14    9   12 1
    15    9   13 1
    16   13   14 1
    17   14   15 1
    18   14   35 1
    19   14   36 1
    20   15   16 1
    21   15   17 1
    22   15   37 1
    23   16   21 1
    24   17   18 1
    25   17   19 1
    26   17   38 1
    27   18   39 1
    28   19   20 1
    29   19   21 1
    30   19   40 1
    31   20   41 1
    32   21   22 1
    33   21   42 1
    34   22   23 ar
    35   22   31 ar
    36   23   24 ar
    37   23   43 1
    38   24   25 ar
    39   24   47 1
    40   25   26 ar
    41   25   31 ar
    42   26   27 1
    43   26   28 ar
    44   27   44 1
    45   27   45 1
    46   28   29 ar
    47   29   30 ar
    48   29   46 1
    49   30   31 ar
@<TRIPOS>SUBSTRUCTURE
     1 ACP         1 GROUP 0 A     ****
@<TRIPOS>MOLECULE
[[5-(6-amino-7,8-dihydropurin-8-ylium-9-yl)-3,4-dihydroxy-tetrahydrofuran-2-yl]methoxy-oxido-phosphoryl]oxy-[[hydroxy(oxido)phosphoryl]methyl]phosphinate
   47    49     1     0     0
SMALL
USER_CHARGES

@<TRIPOS>ATOM
      1 PG         -2.5671   -8.2001    1.4535 P.3       1 ACP         1.3755
      2 O1G        -1.7570   -6.9872    1.0591 O.co2     1 ACP        -0.8970
      3 O2G        -2.7636   -9.3731    0.5209 O.co2     1 ACP        -0.8970
      4 O3G        -2.0580   -8.7434    2.9045 O.3       1 ACP        -0.7959
      5 PB         -4.5257   -6.4349    3.3569 P.3       1 ACP         1.5194
      6 O1B        -3.9827   -7.0816    4.6098 O.co2     1 ACP        -0.8958
      7 O2B        -5.9544   -5.9524    3.2553 O.co2     1 ACP        -0.8958
      8 C3B        -4.2430   -7.6119    1.9609 C.3       1 ACP        -0.5612
      9 PA         -3.0181   -3.8920    3.6167 P.3       1 ACP         1.6019
     10 O1A        -2.1616   -4.2860    4.8002 O.co2     1 ACP        -0.9040
     11 O2A        -4.2124   -2.9804    3.7989 O.co2     1 ACP        -0.9040
     12 O3A        -3.5163   -5.2531    2.8644 O.3       1 ACP        -0.8156
     13 O5'        -2.0403   -3.2809    2.4568 O.3       1 ACP        -0.5465
     14 C5'        -0.7840   -3.8935    2.2172 C.3       1 ACP         0.2108
     15 C4'        -0.0724   -3.1466    1.1027 C.3       1 ACP         0.0552
     16 O4'        -0.8674   -3.1929   -0.0945 O.3       1 ACP        -0.3428
     17 C3'         0.1338   -1.6715    1.4027 C.3       1 ACP         0.0750
     18 O3'         1.2893   -1.4445    2.1808 O.3       1 ACP        -0.6066
     19 C2'         0.2158   -1.0724    0.0128 C.3       1 ACP         0.1185
     20 O2'         1.5141   -1.2448   -0.5513 O.3       1 ACP        -0.5858
     21 C1'        -0.7897   -1.9176   -0.7583 C.3       1 ACP         0.3826
     22 N9         -2.1040   -1.3333   -0.7704 N.pl3     1 ACP        -0.5729
     23 C8         -3.2304   -1.8262   -0.2767 C.ar      1 ACP         0.3288
     24 N7         -4.2847   -1.0309   -0.4481 N.pl3     1 ACP        -0.5338
     25 C5         -3.7951    0.0479   -1.0985 C.ar      1 ACP        -0.2581
     26 C6         -4.3691    1.1983   -1.5536 C.ar      1 ACP         0.7413
     27 N6         -5.7501    1.4047   -1.3573 N.pl3     1 ACP        -0.9512
     28 N1         -3.6289    2.1345   -2.1869 N.ar      1 ACP        -0.7699
     29 C2         -2.3041    1.8525   -2.3333 C.ar      1 ACP         0.6898
     30 N3         -1.6387    0.7492   -1.9218 N.ar      1 ACP        -0.6800
     31 C4         -2.4348   -0.1293   -1.3053 C.ar      1 ACP         0.6129
     32 HOG3       -1.1229   -9.0250    2.9967 H         1 ACP         0.4199
     33 H3B1       -4.8236   -8.5122    2.1909 H         1 ACP         0.0672
     34 H3B2       -4.6936   -7.1489    1.0760 H         1 ACP         0.0672
     35 H5'1       -0.1929   -3.8610    3.1379 H         1 ACP         0.0277
     36 H5'2       -0.9476   -4.9382    1.9344 H         1 ACP         0.0277
     37 H4'         0.8886   -3.6447    0.8779 H         1 ACP         0.1249
     38 H3'        -0.7373   -1.2359    1.9870 H         1 ACP         0.0564
     39 HO3'        1.3408   -0.4870    2.3219 H         1 ACP         0.4511
     40 H2'        -0.0384   -0.0310    0.0096 H         1 ACP         0.0716
     41 HO2'        2.1463   -0.7958    0.0370 H         1 ACP         0.4454
     42 H1'        -0.4769   -2.1002   -1.8093 H         1 ACP         0.1310
     43 H8         -3.2974   -2.7789    0.2194 H         1 ACP         0.3565
     44 HN61       -6.2956    0.6838   -0.9296 H         1 ACP         0.4414
     45 HN62       -6.1788    2.2266   -1.7327 H         1 ACP         0.4414
     46 H2         -1.7135    2.6057   -2.8421 H         1 ACP         0.0676
     47 H47        -5.2337   -1.2102   -0.1507 H         1 ACP         0.5052
@<TRIPOS>BOND
     1    1    2 2
     2    1    3 1
     3    1    4 1
     4    1    8 1
     5    4   32 1
     6    5    6 2
     7    5    7 1
     8    5    8 1
     9    5   12 1
    10    8   33 1
    11    8   34 1
    12    9   10 2
    13    9   11 1
    14    9   12 1
    15    9   13 1
    16   13   14 1
    17   14   15 1
    18   14   35 1
    19   14   36 1
    20   15   16 1
    21   15   17 1
    22   15   37 1
    23   16   21 1
    24   17   18 1
    25   17   19 1
    26   17   38 1
    27   18   39 1
    28   19   20 1
    29   19   21 1
    30   19   40 1
    31   20   41 1
    32   21   22 1
    33   21   42 1
    34   22   23 ar
    35   22   31 ar
    36   23   24 ar
    37   23   43 1
    38   24   25 ar
    39   24   47 1
    40   25   26 ar
    41   25   31 ar
    42   26   27 1
    43   26   28 ar
    44   27   44 1
    45   27   45 1
    46   28   29 ar
    47   29   30 ar
    48   29   46 1
    49   30   31 ar
@<TRIPOS>SUBSTRUCTURE
     1 ACP         1 GROUP 0 A     ****
@<TRIPOS>MOLECULE
[[5-(6-amino-7,8-dihydropurin-8-ylium-9-yl)-3,4-dihydroxy-tetrahydrofuran-2-yl]methoxy-oxido-phosphoryl]oxy-[[hydroxy(oxido)phosphoryl]methyl]phosphinate
   47    49     1     0     0
SMALL
USER_CHARGES

@<TRIPOS>ATOM
      1 PG         -0.4769   -3.6080    6.8105 P.3       1 ACP         1.3755
      2 O1G        -1.7246   -2.9657    6.2506 O.co2     1 ACP        -0.8970
      3 O2G         0.8986   -3.3029    6.2637 O.co2     1 ACP        -0.8970
      4 O3G        -0.4625   -3.4405    8.4327 O.3       1 ACP        -0.7959
      5 PB         -0.9938   -6.3597    5.1563 P.3       1 ACP         1.5194
      6 O1B        -2.2612   -5.8159    4.5393 O.co2     1 ACP        -0.8958
      7 O2B        -0.8113   -7.8299    5.4553 O.co2     1 ACP        -0.8958
      8 C3B        -0.7079   -5.4391    6.7326 C.3       1 ACP        -0.5612
      9 PA          0.7253   -5.9839    2.7667 P.3       1 ACP         1.6019
     10 O1A         0.7135   -7.4595    2.4317 O.co2     1 ACP        -0.9040
     11 O2A         1.9570   -5.1440    2.5058 O.co2     1 ACP        -0.9040
     12 O3A         0.3009   -5.8072    4.3337 O.3       1 ACP        -0.8156
     13 O5'        -0.5697   -5.2855    2.0524 O.3       1 ACP        -0.5465
     14 C5'        -0.7840   -3.8935    2.2172 C.3       1 ACP         0.2108
     15 C4'        -0.0724   -3.1466    1.1027 C.3       1 ACP         0.0552
     16 O4'        -0.8674   -3.1929   -0.0945 O.3       1 ACP        -0.3428
     17 C3'         0.1338   -1.6715    1.4027 C.3       1 ACP         0.0750
     18 O3'         1.2893   -1.4445    2.1808 O.3       1 ACP        -0.6066
     19 C2'         0.2158   -1.0724    0.0128 C.3       1 ACP         0.1185
     20 O2'         1.5141   -1.2448   -0.5513 O.3       1 ACP        -0.5858
     21 C1'        -0.7897   -1.9176   -0.7583 C.3       1 ACP         0.3826
     22 N9         -2.1040   -1.3333   -0.7704 N.pl3     1 ACP        -0.5729
     23 C8         -3.2304   -1.8262   -0.2767 C.ar      1 ACP         0.3288
     24 N7         -4.2847   -1.0309   -0.4481 N.pl3     1 ACP        -0.5338
     25 C5         -3.7951    0.0479   -1.0985 C.ar      1 ACP        -0.2581
     26 C6         -4.3691    1.1983   -1.5536 C.ar      1 ACP         0.7413
     27 N6         -5.7501    1.4047   -1.3573 N.pl3     1 ACP        -0.9512
     28 N1         -3.6289    2.1345   -2.1869 N.ar      1 ACP        -0.7699
     29 C2         -2.3041    1.8525   -2.3333 C.ar      1 ACP         0.6898
     30 N3         -1.6387    0.7492   -1.9218 N.ar      1 ACP        -0.6800
     31 C4         -2.4348   -0.1293   -1.3053 C.ar      1 ACP         0.6129
     32 HOG3       -0.4696   -2.5348    8.8095 H         1 ACP         0.4199
     33 H3B1       -1.5597   -5.6652    7.3836 H         1 ACP         0.0672
     34 H3B2        0.1815   -5.8867    7.1899 H         1 ACP         0.0672
     35 H5'1       -1.8599   -3.6946    2.1849 H         1 ACP         0.0277
     36 H5'2       -0.3934   -3.5881    3.1930 H         1 ACP         0.0277
     37 H4'         0.8886   -3.6447    0.8779 H         1 ACP         0.1249
     38 H3'        -0.7373   -1.2359    1.9870 H         1 ACP         0.0564
     39 HO3'        1.3408   -0.4870    2.3219 H         1 ACP         0.4511
     40 H2'        -0.0384   -0.0310    0.0096 H         1 ACP         0.0716
     41 HO2'        1.4998   -0.8412   -1.4369 H         1 ACP         0.4454
     42 H1'        -0.4769   -2.1002   -1.8093 H         1 ACP         0.1310
     43 H8         -3.2974   -2.7789    0.2194 H         1 ACP         0.3565
     44 HN61       -6.2956    0.6838   -0.9296 H         1 ACP         0.4414
     45 HN62       -6.1788    2.2266   -1.7327 H         1 ACP         0.4414
     46 H2         -1.7135    2.6057   -2.8421 H         1 ACP         0.0676
     47 H47        -5.2337   -1.2102   -0.1507 H         1 ACP         0.5052
@<TRIPOS>BOND
     1    1    2 2
     2    1    3 1
     3    1    4 1
     4    1    8 1
     5    4   32 1
     6    5    6 2
     7    5    7 1
     8    5    8 1
     9    5   12 1
    10    8   33 1
    11    8   34 1
    12    9   10 2
    13    9   11 1
    14    9   12 1
    15    9   13 1
    16   13   14 1
    17   14   15 1
    18   14   35 1
    19   14   36 1
    20   15   16 1
    21   15   17 1
    22   15   37 1
    23   16   21 1
    24   17   18 1
    25   17   19 1
    26   17   38 1
    27   18   39 1
    28   19   20 1
    29   19   21 1
    30   19   40 1
    31   20   41 1
    32   21   22 1
    33   21   42 1
    34   22   23 ar
    35   22   31 ar
    36   23   24 ar
    37   23   43 1
    38   24   25 ar
    39   24   47 1
    40   25   26 ar
    41   25   31 ar
    42   26   27 1
    43   26   28 ar
    44   27   44 1
    45   27   45 1
    46   28   29 ar
    47   29   30 ar
    48   29   46 1
    49   30   31 ar
@<TRIPOS>SUBSTRUCTURE
     1 ACP         1 GROUP 0 A     ****
@<TRIPOS>MOLECULE
[[5-(6-amino-7,8-dihydropurin-8-ylium-9-yl)-3,4-dihydroxy-tetrahydrofuran-2-yl]methoxy-oxido-phosphoryl]oxy-[[hydroxy(oxido)phosphoryl]methyl]phosphinate
   47    49     1     0     0
SMALL
USER_CHARGES

@<TRIPOS>ATOM
      1 PG          2.1683   -4.2301   -4.3190 P.3       1 ACP         1.3755
      2 O1G         3.2094   -4.0690   -3.2360 O.co2     1 ACP        -0.8970
      3 O2G         1.8086   -5.5810   -4.8933 O.co2     1 ACP        -0.8970
      4 O3G         0.8052   -3.4493   -3.8807 O.3       1 ACP        -0.7959
      5 PB          2.8430   -1.3106   -5.5828 P.3       1 ACP         1.5194
      6 O1B         1.5054   -0.7543   -5.1539 O.co2     1 ACP        -0.8958
      7 O2B         3.5525   -0.8295   -6.8275 O.co2     1 ACP        -0.8958
      8 C3B         2.6573   -3.1431   -5.7303 C.3       1 ACP        -0.5612
      9 PA          4.4357   -0.0473   -3.4208 P.3       1 ACP         1.6019
     10 O1A         5.0077    1.0009   -4.3502 O.co2     1 ACP        -0.9040
     11 O2A         5.2684   -0.6124   -2.2904 O.co2     1 ACP        -0.9040
     12 O3A         3.8786   -1.2888   -4.3238 O.3       1 ACP        -0.8156
     13 O5'         3.0198    0.5138   -2.8245 O.3       1 ACP        -0.5465
     14 C5'         2.2816   -0.2918   -1.9206 C.3       1 ACP         0.2108
     15 C4'         2.7248    0.0226   -0.4980 C.3       1 ACP         0.0552
     16 O4'         2.4697    1.4219   -0.2462 O.3       1 ACP        -0.3428
     17 C3'         1.9404   -0.7419    0.5596 C.3       1 ACP         0.0750
     18 O3'         2.7418   -0.8086    1.7389 O.3       1 ACP        -0.6066
     19 C2'         0.7477    0.1630    0.7858 C.3       1 ACP         0.1185
     20 O2'         0.1373   -0.0577    2.0407 O.3       1 ACP        -0.5858
     21 C1'         1.3733    1.5427    0.6747 C.3       1 ACP         0.3826
     22 N9          0.4520    2.5240    0.1767 N.pl3     1 ACP        -0.5729
     23 C8         -0.5899    2.3466   -0.6224 C.ar      1 ACP         0.3288
     24 N7         -1.2514    3.4689   -0.8989 N.pl3     1 ACP        -0.5338
     25 C5         -0.5826    4.4323   -0.2272 C.ar      1 ACP        -0.2581
     26 C6         -0.7636    5.7789   -0.1086 C.ar      1 ACP         0.7413
     27 N6         -1.8382    6.3927   -0.7843 N.pl3     1 ACP        -0.9512
     28 N1          0.0741    6.5233    0.6461 N.ar      1 ACP        -0.7699
     29 C2          1.0845    5.8486    1.2626 C.ar      1 ACP         0.6898
     30 N3          1.3516    4.5236    1.2116 N.ar      1 ACP        -0.6800
     31 C4          0.4827    3.8546    0.4481 C.ar      1 ACP         0.6129
     32 HOG3        0.3532   -3.7248   -3.0549 H         1 ACP         0.4199
     33 H3B1        1.9168   -3.3181   -6.5186 H         1 ACP         0.0672
     34 H3B2        3.6196   -3.5184   -6.0958 H         1 ACP         0.0672
     35 H5'1        1.2153   -0.0781   -2.0454 H         1 ACP         0.0277
     36 H5'2        2.4645   -1.3454   -2.1547 H         1 ACP         0.0277
     37 H4'         3.8050   -0.1388   -0.4008 H         1 ACP         0.1249
     38 H3'         1.6784   -1.7629    0.2714 H         1 ACP         0.0564
     39 HO3'        2.2232   -1.2979    2.3953 H         1 ACP         0.4511
     40 H2'        -0.0011    0.0027    0.0003 H         1 ACP         0.0716
     41 HO2'       -0.6141    0.5574    2.1082 H         1 ACP         0.4454
     42 H1'         1.7826    1.9024    1.6451 H         1 ACP         0.1310
     43 H8         -0.8833    1.3888   -1.0158 H         1 ACP         0.3565
     44 HN61       -2.4225    5.8385   -1.3773 H         1 ACP         0.4414
     45 HN62       -1.9421    7.3862   -0.7348 H         1 ACP         0.4414
     46 H2          1.7546    6.4491    1.8670 H         1 ACP         0.0676
     47 H47        -2.0705    3.5612   -1.4834 H         1 ACP         0.5052
@<TRIPOS>BOND
     1    1    2 2
     2    1    3 1
     3    1    4 1
     4    1    8 1
     5    4   32 1
     6    5    6 2
     7    5    7 1
     8    5    8 1
     9    5   12 1
    10    8   33 1
    11    8   34 1
    12    9   10 2
    13    9   11 1
    14    9   12 1
    15    9   13 1
    16   13   14 1
    17   14   15 1
    18   14   35 1
    19   14   36 1
    20   15   16 1
    21   15   17 1
    22   15   37 1
    23   16   21 1
    24   17   18 1
    25   17   19 1
    26   17   38 1
    27   18   39 1
    28   19   20 1
    29   19   21 1
    30   19   40 1
    31   20   41 1
    32   21   22 1
    33   21   42 1
    34   22   23 ar
    35   22   31 ar
    36   23   24 ar
    37   23   43 1
    38   24   25 ar
    39   24   47 1
    40   25   26 ar
    41   25   31 ar
    42   26   27 1
    43   26   28 ar
    44   27   44 1
    45   27   45 1
    46   28   29 ar
    47   29   30 ar
    48   29   46 1
    49   30   31 ar
@<TRIPOS>SUBSTRUCTURE
     1 ACP         1 GROUP 0 A     ****
@<TRIPOS>MOLECULE
[[5-(6-amino-7,8-dihydropurin-8-ylium-9-yl)-3,4-dihydroxy-tetrahydrofuran-2-yl]methoxy-oxido-phosphoryl]oxy-[[hydroxy(oxido)phosphoryl]methyl]phosphinate
   47    49     1     0     0
SMALL
USER_CHARGES

@<TRIPOS>ATOM
      1 PG          2.1679    5.0449   -2.4981 P.3       1 ACP         1.3755
      2 O1G         2.7920    3.9141   -1.7142 O.co2     1 ACP        -0.8970
      3 O2G         1.5458    6.2445   -1.8211 O.co2     1 ACP        -0.8970
      4 O3G         3.2132    5.5524   -3.6425 O.3       1 ACP        -0.7959
      5 PB          1.2692    3.0530   -4.9064 P.3       1 ACP         1.5194
      6 O1B         2.2575    3.6756   -5.8647 O.co2     1 ACP        -0.8958
      7 O2B        -0.0472    2.4743   -5.3718 O.co2     1 ACP        -0.8958
      8 C3B         0.8873    4.3136   -3.6106 C.3       1 ACP        -0.5612
      9 PA          2.8601    0.6157   -4.3273 P.3       1 ACP         1.6019
     10 O1A         4.1150    1.0126   -5.0738 O.co2     1 ACP        -0.9040
     11 O2A         1.8946   -0.3873   -4.9208 O.co2     1 ACP        -0.9040
     12 O3A         2.0316    1.9723   -3.9530 O.3       1 ACP        -0.8156
     13 O5'         3.2883    0.1336   -2.8242 O.3       1 ACP        -0.5465
     14 C5'         2.2816   -0.2918   -1.9206 C.3       1 ACP         0.2108
     15 C4'         2.7248    0.0226   -0.4980 C.3       1 ACP         0.0552
     16 O4'         2.4697    1.4219   -0.2462 O.3       1 ACP        -0.3428
     17 C3'         1.9404   -0.7419    0.5596 C.3       1 ACP         0.0750
     18 O3'         2.7418   -0.8086    1.7389 O.3       1 ACP        -0.6066
     19 C2'         0.7477    0.1630    0.7858 C.3       1 ACP         0.1185
     20 O2'         0.1373   -0.0577    2.0407 O.3       1 ACP        -0.5858
     21 C1'         1.3733    1.5427    0.6747 C.3       1 ACP         0.3826
     22 N9          0.4520    2.5240    0.1767 N.pl3     1 ACP        -0.5729
     23 C8         -0.5899    2.3466   -0.6224 C.ar      1 ACP         0.3288
     24 N7         -1.2514    3.4689   -0.8989 N.pl3     1 ACP        -0.5338
     25 C5         -0.5826    4.4323   -0.2272 C.ar      1 ACP        -0.2581
     26 C6         -0.7636    5.7789   -0.1086 C.ar      1 ACP         0.7413
     27 N6         -1.8382    6.3927   -0.7843 N.pl3     1 ACP        -0.9512
     28 N1          0.0741    6.5233    0.6461 N.ar      1 ACP        -0.7699
     29 C2          1.0845    5.8486    1.2626 C.ar      1 ACP         0.6898
     30 N3          1.3516    4.5236    1.2116 N.ar      1 ACP        -0.6800
     31 C4          0.4827    3.8546    0.4481 C.ar      1 ACP         0.6129
     32 HOG3        4.0870    5.8959   -3.3586 H         1 ACP         0.4199
     33 H3B1        0.4166    5.1575   -4.1269 H         1 ACP         0.0672
     34 H3B2        0.1288    3.8628   -2.9611 H         1 ACP         0.0672
     35 H5'1        1.3500    0.2325   -2.1560 H         1 ACP         0.0277
     36 H5'2        2.1267   -1.3683   -2.0444 H         1 ACP         0.0277
     37 H4'         3.8050   -0.1388   -0.4008 H         1 ACP         0.1249
     38 H3'         1.6784   -1.7629    0.2714 H         1 ACP         0.0564
     39 HO3'        2.2232   -1.2979    2.3953 H         1 ACP         0.4511
     40 H2'        -0.0011    0.0027    0.0003 H         1 ACP         0.0716
     41 HO2'       -0.6141    0.5574    2.1082 H         1 ACP         0.4454
     42 H1'         1.7826    1.9024    1.6451 H         1 ACP         0.1310
     43 H8         -0.8833    1.3888   -1.0158 H         1 ACP         0.3565
     44 HN61       -2.4225    5.8385   -1.3773 H         1 ACP         0.4414
     45 HN62       -1.9421    7.3862   -0.7348 H         1 ACP         0.4414
     46 H2          1.7546    6.4491    1.8670 H         1 ACP         0.0676
     47 H47        -2.0705    3.5612   -1.4834 H         1 ACP         0.5052
@<TRIPOS>BOND
     1    1    2 2
     2    1    3 1
     3    1    4 1
     4    1    8 1
     5    4   32 1
     6    5    6 2
     7    5    7 1
     8    5    8 1
     9    5   12 1
    10    8   33 1
    11    8   34 1
    12    9   10 2
    13    9   11 1
    14    9   12 1
    15    9   13 1
    16   13   14 1
    17   14   15 1
    18   14   35 1
    19   14   36 1
    20   15   16 1
    21   15   17 1
    22   15   37 1
    23   16   21 1
    24   17   18 1
    25   17   19 1
    26   17   38 1
    27   18   39 1
    28   19   20 1
    29   19   21 1
    30   19   40 1
    31   20   41 1
    32   21   22 1
    33   21   42 1
    34   22   23 ar
    35   22   31 ar
    36   23   24 ar
    37   23   43 1
    38   24   25 ar
    39   24   47 1
    40   25   26 ar
    41   25   31 ar
    42   26   27 1
    43   26   28 ar
    44   27   44 1
    45   27   45 1
    46   28   29 ar
    47   29   30 ar
    48   29   46 1
    49   30   31 ar
@<TRIPOS>SUBSTRUCTURE
     1 ACP         1 GROUP 0 A     ****
@<TRIPOS>MOLECULE
[[5-(6-amino-7,8-dihydropurin-8-ylium-9-yl)-3,4-dihydroxy-tetrahydrofuran-2-yl]methoxy-oxido-phosphoryl]oxy-[[hydroxy(oxido)phosphoryl]methyl]phosphinate
   47    49     1     0     0
SMALL
USER_CHARGES

@<TRIPOS>ATOM
      1 PG          1.9235   -1.2778   -7.1863 P.3       1 ACP         1.3755
      2 O1G         1.9559   -0.2479   -8.2913 O.co2     1 ACP        -0.8970
      3 O2G         2.3211   -2.7174   -7.4177 O.co2     1 ACP        -0.8970
      4 O3G         2.7183   -0.7007   -5.8843 O.3       1 ACP        -0.7959
      5 PB         -0.3016   -2.3895   -5.0915 P.3       1 ACP         1.5194
      6 O1B        -0.1046   -3.8147   -5.5528 O.co2     1 ACP        -0.8958
      7 O2B        -1.6341   -1.8839   -4.5885 O.co2     1 ACP        -0.8958
      8 C3B         0.2176   -1.2836   -6.4776 C.3       1 ACP        -0.5612
      9 PA          1.2676   -2.6330   -2.5845 P.3       1 ACP         1.6019
     10 O1A         1.8014   -4.0298   -2.8163 O.co2     1 ACP        -0.9040
     11 O2A         0.1253   -2.3943   -1.6209 O.co2     1 ACP        -0.9040
     12 O3A         0.8686   -1.9867   -4.0302 O.3       1 ACP        -0.8156
     13 O5'         2.5237   -1.6631   -2.1889 O.3       1 ACP        -0.5465
     14 C5'         2.2816   -0.2918   -1.9206 C.3       1 ACP         0.2108
     15 C4'         2.7248    0.0226   -0.4980 C.3       1 ACP         0.0552
     16 O4'         2.4697    1.4219   -0.2462 O.3       1 ACP        -0.3428
     17 C3'         1.9404   -0.7419    0.5596 C.3       1 ACP         0.0750
     18 O3'         2.7418   -0.8086    1.7389 O.3       1 ACP        -0.6066
     19 C2'         0.7477    0.1630    0.7858 C.3       1 ACP         0.1185
     20 O2'         0.1373   -0.0577    2.0407 O.3       1 ACP        -0.5858
     21 C1'         1.3733    1.5427    0.6747 C.3       1 ACP         0.3826
     22 N9          0.4520    2.5240    0.1767 N.pl3     1 ACP        -0.5729
     23 C8         -0.8602    2.5861    0.3496 C.ar      1 ACP         0.3288
     24 N7         -1.4308    3.6326   -0.2443 N.pl3     1 ACP        -0.5338
     25 C5         -0.4080    4.2856   -0.8394 C.ar      1 ACP        -0.2581
     26 C6         -0.3432    5.4196   -1.5943 C.ar      1 ACP         0.7413
     27 N6         -1.5276    6.1333   -1.8702 N.pl3     1 ACP        -0.9512
     28 N1          0.8395    5.8603   -2.0764 N.ar      1 ACP        -0.7699
     29 C2          1.9319    5.1095   -1.7617 C.ar      1 ACP         0.6898
     30 N3          1.9773    3.9761   -1.0249 N.ar      1 ACP        -0.6800
     31 C4          0.7724    3.6031   -0.5836 C.ar      1 ACP         0.6129
     32 HOG3        3.6657   -0.4656   -5.9809 H         1 ACP         0.4199
     33 H3B1       -0.4575   -1.4956   -7.3141 H         1 ACP         0.0672
     34 H3B2        0.0138   -0.2602   -6.1436 H         1 ACP         0.0672
     35 H5'1        2.8429    0.3140   -2.6391 H         1 ACP         0.0277
     36 H5'2        1.2125   -0.0906   -2.0420 H         1 ACP         0.0277
     37 H4'         3.8050   -0.1388   -0.4008 H         1 ACP         0.1249
     38 H3'         1.6784   -1.7629    0.2714 H         1 ACP         0.0564
     39 HO3'        2.2232   -1.2979    2.3953 H         1 ACP         0.4511
     40 H2'        -0.0011    0.0027    0.0003 H         1 ACP         0.0716
     41 HO2'       -0.1563   -0.9855    2.0596 H         1 ACP         0.4454
     42 H1'         1.7826    1.9024    1.6451 H         1 ACP         0.1310
     43 H8         -1.4217    1.8638    0.9164 H         1 ACP         0.3565
     44 HN61       -2.4023    5.7711   -1.5477 H         1 ACP         0.4414
     45 HN62       -1.4857    6.9379   -2.4627 H         1 ACP         0.4414
     46 H2          2.8789    5.4660   -2.1503 H         1 ACP         0.0676
     47 H47        -2.4129    3.8706   -0.2402 H         1 ACP         0.5052
@<TRIPOS>BOND
     1    1    2 2
     2    1    3 1
     3    1    4 1
     4    1    8 1
     5    4   32 1
     6    5    6 2
     7    5    7 1
     8    5    8 1
     9    5   12 1
    10    8   33 1
    11    8   34 1
    12    9   10 2
    13    9   11 1
    14    9   12 1
    15    9   13 1
    16   13   14 1
    17   14   15 1
    18   14   35 1
    19   14   36 1
    20   15   16 1
    21   15   17 1
    22   15   37 1
    23   16   21 1
    24   17   18 1
    25   17   19 1
    26   17   38 1
    27   18   39 1
    28   19   20 1
    29   19   21 1
    30   19   40 1
    31   20   41 1
    32   21   22 1
    33   21   42 1
    34   22   23 ar
    35   22   31 ar
    36   23   24 ar
    37   23   43 1
    38   24   25 ar
    39   24   47 1
    40   25   26 ar
    41   25   31 ar
    42   26   27 1
    43   26   28 ar
    44   27   44 1
    45   27   45 1
    46   28   29 ar
    47   29   30 ar
    48   29   46 1
    49   30   31 ar
@<TRIPOS>SUBSTRUCTURE
     1 ACP         1 GROUP 0 A     ****
@<TRIPOS>MOLECULE
[[5-(6-amino-7,8-dihydropurin-8-ylium-9-yl)-3,4-dihydroxy-tetrahydrofuran-2-yl]methoxy-oxido-phosphoryl]oxy-[[hydroxy(oxido)phosphoryl]methyl]phosphinate
   47    49     1     0     0
SMALL
USER_CHARGES

@<TRIPOS>ATOM
      1 PG          0.2307    0.0322   -6.6611 P.3       1 ACP         1.3755
      2 O1G        -0.3871    1.3432   -7.0881 O.co2     1 ACP        -0.8970
      3 O2G        -0.1442   -0.6482   -5.3646 O.co2     1 ACP        -0.8970
      4 O3G         0.1243   -1.0409   -7.8846 O.3       1 ACP        -0.7959
      5 PB          3.2480   -1.0895   -6.1991 P.3       1 ACP         1.5194
      6 O1B         4.6432   -0.5224   -6.3192 O.co2     1 ACP        -0.8958
      7 O2B         2.8203   -2.3367   -6.9379 O.co2     1 ACP        -0.8958
      8 C3B         2.0646    0.2534   -6.6578 C.3       1 ACP        -0.5612
      9 PA          3.5286   -2.0718   -3.4129 P.3       1 ACP         1.6019
     10 O1A         4.8908   -1.4784   -3.1267 O.co2     1 ACP        -0.9040
     11 O2A         3.3785   -3.5472   -3.7151 O.co2     1 ACP        -0.9040
     12 O3A         2.8404   -1.2225   -4.6261 O.3       1 ACP        -0.8156
     13 O5'         2.5237   -1.6631   -2.1889 O.3       1 ACP        -0.5465
     14 C5'         2.2816   -0.2918   -1.9206 C.3       1 ACP         0.2108
     15 C4'         2.7248    0.0226   -0.4980 C.3       1 ACP         0.0552
     16 O4'         2.4697    1.4219   -0.2462 O.3       1 ACP        -0.3428
     17 C3'         1.9404   -0.7419    0.5596 C.3       1 ACP         0.0750
     18 O3'         2.7418   -0.8086    1.7389 O.3       1 ACP        -0.6066
     19 C2'         0.7477    0.1630    0.7858 C.3       1 ACP         0.1185
     20 O2'         0.1373   -0.0577    2.0407 O.3       1 ACP        -0.5858
     21 C1'         1.3733    1.5427    0.6747 C.3       1 ACP         0.3826
     22 N9          0.4520    2.5240    0.1767 N.pl3     1 ACP        -0.5729
     23 C8         -0.8602    2.5861    0.3496 C.ar      1 ACP         0.3288
     24 N7         -1.4308    3.6326   -0.2443 N.pl3     1 ACP        -0.5338
     25 C5         -0.4080    4.2856   -0.8394 C.ar      1 ACP        -0.2581
     26 C6         -0.3432    5.4196   -1.5943 C.ar      1 ACP         0.7413
     27 N6         -1.5276    6.1333   -1.8702 N.pl3     1 ACP        -0.9512
     28 N1          0.8395    5.8603   -2.0764 N.ar      1 ACP        -0.7699
     29 C2          1.9319    5.1095   -1.7617 C.ar      1 ACP         0.6898
     30 N3          1.9773    3.9761   -1.0249 N.ar      1 ACP        -0.6800
     31 C4          0.7724    3.6031   -0.5836 C.ar      1 ACP         0.6129
     32 HOG3       -0.7656   -1.2803   -8.2208 H         1 ACP         0.4199
     33 H3B1        2.2678    1.0912   -5.9816 H         1 ACP         0.0672
     34 H3B2        2.3433    0.5730   -7.6681 H         1 ACP         0.0672
     35 H5'1        2.8429    0.3140   -2.6391 H         1 ACP         0.0277
     36 H5'2        1.2125   -0.0906   -2.0420 H         1 ACP         0.0277
     37 H4'         3.8050   -0.1388   -0.4008 H         1 ACP         0.1249
     38 H3'         1.6784   -1.7629    0.2714 H         1 ACP         0.0564
     39 HO3'        2.2232   -1.2979    2.3953 H         1 ACP         0.4511
     40 H2'        -0.0011    0.0027    0.0003 H         1 ACP         0.0716
     41 HO2'       -0.1563   -0.9855    2.0596 H         1 ACP         0.4454
     42 H1'         1.7826    1.9024    1.6451 H         1 ACP         0.1310
     43 H8         -1.4217    1.8638    0.9164 H         1 ACP         0.3565
     44 HN61       -2.4023    5.7711   -1.5477 H         1 ACP         0.4414
     45 HN62       -1.4857    6.9379   -2.4627 H         1 ACP         0.4414
     46 H2          2.8789    5.4660   -2.1503 H         1 ACP         0.0676
     47 H47        -2.4129    3.8706   -0.2402 H         1 ACP         0.5052
@<TRIPOS>BOND
     1    1    2 2
     2    1    3 1
     3    1    4 1
     4    1    8 1
     5    4   32 1
     6    5    6 2
     7    5    7 1
     8    5    8 1
     9    5   12 1
    10    8   33 1
    11    8   34 1
    12    9   10 2
    13    9   11 1
    14    9   12 1
    15    9   13 1
    16   13   14 1
    17   14   15 1
    18   14   35 1
    19   14   36 1
    20   15   16 1
    21   15   17 1
    22   15   37 1
    23   16   21 1
    24   17   18 1
    25   17   19 1
    26   17   38 1
    27   18   39 1
    28   19   20 1
    29   19   21 1
    30   19   40 1
    31   20   41 1
    32   21   22 1
    33   21   42 1
    34   22   23 ar
    35   22   31 ar
    36   23   24 ar
    37   23   43 1
    38   24   25 ar
    39   24   47 1
    40   25   26 ar
    41   25   31 ar
    42   26   27 1
    43   26   28 ar
    44   27   44 1
    45   27   45 1
    46   28   29 ar
    47   29   30 ar
    48   29   46 1
    49   30   31 ar
@<TRIPOS>SUBSTRUCTURE
     1 ACP         1 GROUP 0 A     ****
@<TRIPOS>MOLECULE
[[5-(6-amino-7,8-dihydropurin-8-ylium-9-yl)-3,4-dihydroxy-tetrahydrofuran-2-yl]methoxy-oxido-phosphoryl]oxy-[[hydroxy(oxido)phosphoryl]methyl]phosphinate
   47    49     1     0     0
SMALL
USER_CHARGES

@<TRIPOS>ATOM
      1 PG         -2.3103   -0.4650   -3.0136 P.3       1 ACP         1.3755
      2 O1G        -1.1563   -0.1741   -2.0827 O.co2     1 ACP        -0.8970
      3 O2G        -3.7499   -0.2960   -2.5859 O.co2     1 ACP        -0.8970
      4 O3G        -2.0730    0.3094   -4.4292 O.3       1 ACP        -0.7959
      5 PB         -0.6408   -2.7814   -4.5701 P.3       1 ACP         1.5194
      6 O1B        -0.5592   -1.9529   -5.8309 O.co2     1 ACP        -0.8958
      7 O2B        -0.6954   -4.2915   -4.6021 O.co2     1 ACP        -0.8958
      8 C3B        -2.1151   -2.1986   -3.6208 C.3       1 ACP        -0.5612
      9 PA          2.1362   -2.2698   -3.6575 P.3       1 ACP         1.6019
     10 O1A         2.5073   -1.2450   -4.7072 O.co2     1 ACP        -0.9040
     11 O2A         2.6360   -3.6946   -3.7605 O.co2     1 ACP        -0.9040
     12 O3A         0.5093   -2.3009   -3.5192 O.3       1 ACP        -0.8156
     13 O5'         2.5237   -1.6631   -2.1889 O.3       1 ACP        -0.5465
     14 C5'         2.2816   -0.2918   -1.9206 C.3       1 ACP         0.2108
     15 C4'         2.7248    0.0226   -0.4980 C.3       1 ACP         0.0552
     16 O4'         2.4697    1.4219   -0.2462 O.3       1 ACP        -0.3428
     17 C3'         1.9404   -0.7419    0.5596 C.3       1 ACP         0.0750
     18 O3'         2.7418   -0.8086    1.7389 O.3       1 ACP        -0.6066
     19 C2'         0.7477    0.1630    0.7858 C.3       1 ACP         0.1185
     20 O2'         0.1373   -0.0577    2.0407 O.3       1 ACP        -0.5858
     21 C1'         1.3733    1.5427    0.6747 C.3       1 ACP         0.3826
     22 N9          0.4520    2.5240    0.1767 N.pl3     1 ACP        -0.5729
     23 C8         -0.8602    2.5861    0.3496 C.ar      1 ACP         0.3288
     24 N7         -1.4308    3.6326   -0.2443 N.pl3     1 ACP        -0.5338
     25 C5         -0.4080    4.2856   -0.8394 C.ar      1 ACP        -0.2581
     26 C6         -0.3432    5.4196   -1.5943 C.ar      1 ACP         0.7413
     27 N6         -1.5276    6.1333   -1.8702 N.pl3     1 ACP        -0.9512
     28 N1          0.8395    5.8603   -2.0764 N.ar      1 ACP        -0.7699
     29 C2          1.9319    5.1095   -1.7617 C.ar      1 ACP         0.6898
     30 N3          1.9773    3.9761   -1.0249 N.ar      1 ACP        -0.6800
     31 C4          0.7724    3.6031   -0.5836 C.ar      1 ACP         0.6129
     32 HOG3       -1.9976    1.2873   -4.4205 H         1 ACP         0.4199
     33 H3B1       -2.9893   -2.3998   -4.2498 H         1 ACP         0.0672
     34 H3B2       -2.1877   -2.8484   -2.7417 H         1 ACP         0.0672
     35 H5'1        2.8429    0.3140   -2.6391 H         1 ACP         0.0277
     36 H5'2        1.2125   -0.0906   -2.0420 H         1 ACP         0.0277
     37 H4'         3.8050   -0.1388   -0.4008 H         1 ACP         0.1249
     38 H3'         1.6784   -1.7629    0.2714 H         1 ACP         0.0564
     39 HO3'        2.2232   -1.2979    2.3953 H         1 ACP         0.4511
     40 H2'        -0.0011    0.0027    0.0003 H         1 ACP         0.0716
     41 HO2'       -0.1563   -0.9855    2.0596 H         1 ACP         0.4454
     42 H1'         1.7826    1.9024    1.6451 H         1 ACP         0.1310
     43 H8         -1.4217    1.8638    0.9164 H         1 ACP         0.3565
     44 HN61       -2.4023    5.7711   -1.5477 H         1 ACP         0.4414
     45 HN62       -1.4857    6.9379   -2.4627 H         1 ACP         0.4414
     46 H2          2.8789    5.4660   -2.1503 H         1 ACP         0.0676
     47 H47        -2.4129    3.8706   -0.2402 H         1 ACP         0.5052
@<TRIPOS>BOND
     1    1    2 2
     2    1    3 1
     3    1    4 1
     4    1    8 1
     5    4   32 1
     6    5    6 2
     7    5    7 1
     8    5    8 1
     9    5   12 1
    10    8   33 1
    11    8   34 1
    12    9   10 2
    13    9   11 1
    14    9   12 1
    15    9   13 1
    16   13   14 1
    17   14   15 1
    18   14   35 1
    19   14   36 1
    20   15   16 1
    21   15   17 1
    22   15   37 1
    23   16   21 1
    24   17   18 1
    25   17   19 1
    26   17   38 1
    27   18   39 1
    28   19   20 1
    29   19   21 1
    30   19   40 1
    31   20   41 1
    32   21   22 1
    33   21   42 1
    34   22   23 ar
    35   22   31 ar
    36   23   24 ar
    37   23   43 1
    38   24   25 ar
    39   24   47 1
    40   25   26 ar
    41   25   31 ar
    42   26   27 1
    43   26   28 ar
    44   27   44 1
    45   27   45 1
    46   28   29 ar
    47   29   30 ar
    48   29   46 1
    49   30   31 ar
@<TRIPOS>SUBSTRUCTURE
     1 ACP         1 GROUP 0 A     ****
@<TRIPOS>MOLECULE
[[5-(6-amino-7,8-dihydropurin-8-ylium-9-yl)-3,4-dihydroxy-tetrahydrofuran-2-yl]methoxy-oxido-phosphoryl]oxy-[[hydroxy(oxido)phosphoryl]methyl]phosphinate
   47    49     1     0     0
SMALL
USER_CHARGES

@<TRIPOS>ATOM
      1 PG          6.7415    1.6670    0.7742 P.3       1 ACP         1.3755
      2 O1G         6.8467    1.4742    2.2690 O.co2     1 ACP        -0.8970
      3 O2G         5.5314    2.3026    0.1293 O.co2     1 ACP        -0.8970
      4 O3G         8.0922    2.3982    0.2258 O.3       1 ACP        -0.7959
      5 PB          6.9454   -0.2436   -1.8494 P.3       1 ACP         1.5194
      6 O1B         7.1873   -1.7136   -2.1010 O.co2     1 ACP        -0.8958
      7 O2B         7.8023    0.8316   -2.4771 O.co2     1 ACP        -0.8958
      8 C3B         6.9882    0.0180   -0.0208 C.3       1 ACP        -0.5612
      9 PA          4.4357   -0.0473   -3.4208 P.3       1 ACP         1.6019
     10 O1A         4.2723   -1.5208   -3.7237 O.co2     1 ACP        -0.9040
     11 O2A         4.9479    0.9052   -4.4795 O.co2     1 ACP        -0.9040
     12 O3A         5.3713    0.1055   -2.0911 O.3       1 ACP        -0.8156
     13 O5'         3.0198    0.5138   -2.8245 O.3       1 ACP        -0.5465
     14 C5'         2.2816   -0.2918   -1.9206 C.3       1 ACP         0.2108
     15 C4'         2.7248    0.0226   -0.4980 C.3       1 ACP         0.0552
     16 O4'         2.4697    1.4219   -0.2462 O.3       1 ACP        -0.3428
     17 C3'         1.9404   -0.7419    0.5596 C.3       1 ACP         0.0750
     18 O3'         2.7418   -0.8086    1.7389 O.3       1 ACP        -0.6066
     19 C2'         0.7477    0.1630    0.7858 C.3       1 ACP         0.1185
     20 O2'         0.1373   -0.0577    2.0407 O.3       1 ACP        -0.5858
     21 C1'         1.3733    1.5427    0.6747 C.3       1 ACP         0.3826
     22 N9          0.4520    2.5240    0.1767 N.pl3     1 ACP        -0.5729
     23 C8         -0.8602    2.5861    0.3496 C.ar      1 ACP         0.3288
     24 N7         -1.4308    3.6326   -0.2443 N.pl3     1 ACP        -0.5338
     25 C5         -0.4080    4.2856   -0.8394 C.ar      1 ACP        -0.2581
     26 C6         -0.3432    5.4196   -1.5943 C.ar      1 ACP         0.7413
     27 N6         -1.5276    6.1333   -1.8702 N.pl3     1 ACP        -0.9512
     28 N1          0.8395    5.8603   -2.0764 N.ar      1 ACP        -0.7699
     29 C2          1.9319    5.1095   -1.7617 C.ar      1 ACP         0.6898
     30 N3          1.9773    3.9761   -1.0249 N.ar      1 ACP        -0.6800
     31 C4          0.7724    3.6031   -0.5836 C.ar      1 ACP         0.6129
     32 HOG3        8.3200    3.2849    0.5781 H         1 ACP         0.4199
     33 H3B1        6.2242   -0.6415    0.4056 H         1 ACP         0.0672
     34 H3B2        7.9635   -0.3496    0.3169 H         1 ACP         0.0672
     35 H5'1        1.2153   -0.0781   -2.0454 H         1 ACP         0.0277
     36 H5'2        2.4645   -1.3454   -2.1547 H         1 ACP         0.0277
     37 H4'         3.8050   -0.1388   -0.4008 H         1 ACP         0.1249
     38 H3'         1.6784   -1.7629    0.2714 H         1 ACP         0.0564
     39 HO3'        3.5554   -1.2733    1.4914 H         1 ACP         0.4511
     40 H2'        -0.0011    0.0027    0.0003 H         1 ACP         0.0716
     41 HO2'       -0.1563   -0.9855    2.0596 H         1 ACP         0.4454
     42 H1'         1.7826    1.9024    1.6451 H         1 ACP         0.1310
     43 H8         -1.4217    1.8638    0.9164 H         1 ACP         0.3565
     44 HN61       -2.4023    5.7711   -1.5477 H         1 ACP         0.4414
     45 HN62       -1.4857    6.9379   -2.4627 H         1 ACP         0.4414
     46 H2          2.8789    5.4660   -2.1503 H         1 ACP         0.0676
     47 H47        -2.4129    3.8706   -0.2402 H         1 ACP         0.5052
@<TRIPOS>BOND
     1    1    2 2
     2    1    3 1
     3    1    4 1
     4    1    8 1
     5    4   32 1
     6    5    6 2
     7    5    7 1
     8    5    8 1
     9    5   12 1
    10    8   33 1
    11    8   34 1
    12    9   10 2
    13    9   11 1
    14    9   12 1
    15    9   13 1
    16   13   14 1
    17   14   15 1
    18   14   35 1
    19   14   36 1
    20   15   16 1
    21   15   17 1
    22   15   37 1
    23   16   21 1
    24   17   18 1
    25   17   19 1
    26   17   38 1
    27   18   39 1
    28   19   20 1
    29   19   21 1
    30   19   40 1
    31   20   41 1
    32   21   22 1
    33   21   42 1
    34   22   23 ar
    35   22   31 ar
    36   23   24 ar
    37   23   43 1
    38   24   25 ar
    39   24   47 1
    40   25   26 ar
    41   25   31 ar
    42   26   27 1
    43   26   28 ar
    44   27   44 1
    45   27   45 1
    46   28   29 ar
    47   29   30 ar
    48   29   46 1
    49   30   31 ar
@<TRIPOS>SUBSTRUCTURE
     1 ACP         1 GROUP 0 A     ****
@<TRIPOS>MOLECULE
[[5-(6-amino-7,8-dihydropurin-8-ylium-9-yl)-3,4-dihydroxy-tetrahydrofuran-2-yl]methoxy-oxido-phosphoryl]oxy-[[hydroxy(oxido)phosphoryl]methyl]phosphinate
   47    49     1     0     0
SMALL
USER_CHARGES

@<TRIPOS>ATOM
      1 PG          5.9947    1.5527   -3.9419 P.3       1 ACP         1.3755
      2 O1G         7.0285    2.3954   -4.6519 O.co2     1 ACP        -0.8970
      3 O2G         5.4871    1.8983   -2.5609 O.co2     1 ACP        -0.8970
      4 O3G         4.7266    1.2996   -4.9357 O.3       1 ACP        -0.7959
      5 PB          5.7071   -1.5745   -3.0977 P.3       1 ACP         1.5194
      6 O1B         5.4960   -1.2202   -1.6442 O.co2     1 ACP        -0.8958
      7 O2B         6.3847   -2.8569   -3.5227 O.co2     1 ACP        -0.8958
      8 C3B         6.6340   -0.1791   -3.8773 C.3       1 ACP        -0.5612
      9 PA          2.8591   -2.1299   -3.7201 P.3       1 ACP         1.6019
     10 O1A         3.0727   -3.6280   -3.7234 O.co2     1 ACP        -0.9040
     11 O2A         1.8686   -1.4903   -4.6689 O.co2     1 ACP        -0.9040
     12 O3A         4.3077   -1.4018   -3.9162 O.3       1 ACP        -0.8156
     13 O5'         2.5237   -1.6631   -2.1889 O.3       1 ACP        -0.5465
     14 C5'         2.2816   -0.2918   -1.9206 C.3       1 ACP         0.2108
     15 C4'         2.7248    0.0226   -0.4980 C.3       1 ACP         0.0552
     16 O4'         2.4697    1.4219   -0.2462 O.3       1 ACP        -0.3428
     17 C3'         1.9404   -0.7419    0.5596 C.3       1 ACP         0.0750
     18 O3'         2.7418   -0.8086    1.7389 O.3       1 ACP        -0.6066
     19 C2'         0.7477    0.1630    0.7858 C.3       1 ACP         0.1185
     20 O2'         0.1373   -0.0577    2.0407 O.3       1 ACP        -0.5858
     21 C1'         1.3733    1.5427    0.6747 C.3       1 ACP         0.3826
     22 N9          0.4520    2.5240    0.1767 N.pl3     1 ACP        -0.5729
     23 C8         -0.8602    2.5861    0.3496 C.ar      1 ACP         0.3288
     24 N7         -1.4308    3.6326   -0.2443 N.pl3     1 ACP        -0.5338
     25 C5         -0.4080    4.2856   -0.8394 C.ar      1 ACP        -0.2581
     26 C6         -0.3432    5.4196   -1.5943 C.ar      1 ACP         0.7413
     27 N6         -1.5276    6.1333   -1.8702 N.pl3     1 ACP        -0.9512
     28 N1          0.8395    5.8603   -2.0764 N.ar      1 ACP        -0.7699
     29 C2          1.9319    5.1095   -1.7617 C.ar      1 ACP         0.6898
     30 N3          1.9773    3.9761   -1.0249 N.ar      1 ACP        -0.6800
     31 C4          0.7724    3.6031   -0.5836 C.ar      1 ACP         0.6129
     32 HOG3        4.2307    2.0777   -5.2688 H         1 ACP         0.4199
     33 H3B1        7.6025   -0.1260   -3.3677 H         1 ACP         0.0672
     34 H3B2        6.8251   -0.4812   -4.9130 H         1 ACP         0.0672
     35 H5'1        2.8429    0.3140   -2.6391 H         1 ACP         0.0277
     36 H5'2        1.2125   -0.0906   -2.0420 H         1 ACP         0.0277
     37 H4'         3.8050   -0.1388   -0.4008 H         1 ACP         0.1249
     38 H3'         1.6784   -1.7629    0.2714 H         1 ACP         0.0564
     39 HO3'        3.5554   -1.2733    1.4914 H         1 ACP         0.4511
     40 H2'        -0.0011    0.0027    0.0003 H         1 ACP         0.0716
     41 HO2'        0.8082    0.1199    2.7232 H         1 ACP         0.4454
     42 H1'         1.7826    1.9024    1.6451 H         1 ACP         0.1310
     43 H8         -1.4217    1.8638    0.9164 H         1 ACP         0.3565
     44 HN61       -2.4023    5.7711   -1.5477 H         1 ACP         0.4414
     45 HN62       -1.4857    6.9379   -2.4627 H         1 ACP         0.4414
     46 H2          2.8789    5.4660   -2.1503 H         1 ACP         0.0676
     47 H47        -2.4129    3.8706   -0.2402 H         1 ACP         0.5052
@<TRIPOS>BOND
     1    1    2 2
     2    1    3 1
     3    1    4 1
     4    1    8 1
     5    4   32 1
     6    5    6 2
     7    5    7 1
     8    5    8 1
     9    5   12 1
    10    8   33 1
    11    8   34 1
    12    9   10 2
    13    9   11 1
    14    9   12 1
    15    9   13 1
    16   13   14 1
    17   14   15 1
    18   14   35 1
    19   14   36 1
    20   15   16 1
    21   15   17 1
    22   15   37 1
    23   16   21 1
    24   17   18 1
    25   17   19 1
    26   17   38 1
    27   18   39 1
    28   19   20 1
    29   19   21 1
    30   19   40 1
    31   20   41 1
    32   21   22 1
    33   21   42 1
    34   22   23 ar
    35   22   31 ar
    36   23   24 ar
    37   23   43 1
    38   24   25 ar
    39   24   47 1
    40   25   26 ar
    41   25   31 ar
    42   26   27 1
    43   26   28 ar
    44   27   44 1
    45   27   45 1
    46   28   29 ar
    47   29   30 ar
    48   29   46 1
    49   30   31 ar
@<TRIPOS>SUBSTRUCTURE
     1 ACP         1 GROUP 0 A     ****
@<TRIPOS>MOLECULE
[[5-(6-amino-7,8-dihydropurin-8-ylium-9-yl)-3,4-dihydroxy-tetrahydrofuran-2-yl]methoxy-oxido-phosphoryl]oxy-[[hydroxy(oxido)phosphoryl]methyl]phosphinate
   47    49     1     0     0
SMALL
USER_CHARGES

@<TRIPOS>ATOM
      1 PG         -3.4017   -7.7903    2.7389 P.3       1 ACP         1.3755
      2 O1G        -4.7682   -8.1533    3.2715 O.co2     1 ACP        -0.8970
      3 O2G        -2.9685   -8.1389    1.3335 O.co2     1 ACP        -0.8970
      4 O3G        -3.1148   -6.2089    3.0158 O.3       1 ACP        -0.7959
      5 PB         -0.3237   -8.3081    3.6517 P.3       1 ACP         1.5194
      6 O1B         0.0224   -8.9391    2.3233 O.co2     1 ACP        -0.8958
      7 O2B         0.3468   -8.7264    4.9400 O.co2     1 ACP        -0.8958
      8 C3B        -2.1457   -8.4967    3.8946 C.3       1 ACP        -0.5612
      9 PA          0.9395   -5.6783    3.1082 P.3       1 ACP         1.6019
     10 O1A         1.2903   -5.9200    1.6563 O.co2     1 ACP        -0.9040
     11 O2A         2.0041   -5.7530    4.1814 O.co2     1 ACP        -0.9040
     12 O3A        -0.2802   -6.6837    3.5186 O.3       1 ACP        -0.8156
     13 O5'         0.1597   -4.2446    3.2157 O.3       1 ACP        -0.5465
     14 C5'        -0.7840   -3.8935    2.2172 C.3       1 ACP         0.2108
     15 C4'        -0.0724   -3.1466    1.1027 C.3       1 ACP         0.0552
     16 O4'        -0.8674   -3.1929   -0.0945 O.3       1 ACP        -0.3428
     17 C3'         0.1338   -1.6715    1.4027 C.3       1 ACP         0.0750
     18 O3'         1.2893   -1.4445    2.1808 O.3       1 ACP        -0.6066
     19 C2'         0.2158   -1.0724    0.0128 C.3       1 ACP         0.1185
     20 O2'         1.5141   -1.2448   -0.5513 O.3       1 ACP        -0.5858
     21 C1'        -0.7897   -1.9176   -0.7583 C.3       1 ACP         0.3826
     22 N9         -2.1040   -1.3333   -0.7704 N.pl3     1 ACP        -0.5729
     23 C8         -3.0822   -1.4850    0.1102 C.ar      1 ACP         0.3288
     24 N7         -4.1844   -0.7999   -0.1888 N.pl3     1 ACP        -0.5338
     25 C5         -3.8875   -0.1651   -1.3445 C.ar      1 ACP        -0.2581
     26 C6         -4.5941    0.6799   -2.1486 C.ar      1 ACP         0.7413
     27 N6         -5.9138    1.0274   -1.7939 N.pl3     1 ACP        -0.9512
     28 N1         -4.0421    1.1824   -3.2748 N.ar      1 ACP        -0.7699
     29 C2         -2.7637    0.7937   -3.5405 C.ar      1 ACP         0.6898
     30 N3         -1.9788   -0.0343   -2.8139 N.ar      1 ACP        -0.6800
     31 C4         -2.5915   -0.4902   -1.7174 C.ar      1 ACP         0.6129
     32 HOG3       -3.7220   -5.5472    2.6214 H         1 ACP         0.4199
     33 H3B1       -2.3439   -9.5734    3.9366 H         1 ACP         0.0672
     34 H3B2       -2.3652   -8.0844    4.8857 H         1 ACP         0.0672
     35 H5'1       -1.2472   -4.8069    1.8308 H         1 ACP         0.0277
     36 H5'2       -1.5578   -3.2634    2.6671 H         1 ACP         0.0277
     37 H4'         0.8886   -3.6447    0.8779 H         1 ACP         0.1249
     38 H3'        -0.7373   -1.2359    1.9870 H         1 ACP         0.0564
     39 HO3'        1.1626   -1.9325    3.0084 H         1 ACP         0.4511
     40 H2'        -0.0384   -0.0310    0.0096 H         1 ACP         0.0716
     41 HO2'        2.1463   -0.7958    0.0370 H         1 ACP         0.4454
     42 H1'        -0.4769   -2.1002   -1.8093 H         1 ACP         0.1310
     43 H8         -3.0031   -2.1011    0.9891 H         1 ACP         0.3565
     44 HN61       -6.3271    0.6117   -0.9836 H         1 ACP         0.4414
     45 HN62       -6.4471    1.6092   -2.4083 H         1 ACP         0.4414
     46 H2         -2.3243    1.1986   -4.4449 H         1 ACP         0.0676
     47 H47        -5.0436   -0.7722    0.3425 H         1 ACP         0.5052
@<TRIPOS>BOND
     1    1    2 2
     2    1    3 1
     3    1    4 1
     4    1    8 1
     5    4   32 1
     6    5    6 2
     7    5    7 1
     8    5    8 1
     9    5   12 1
    10    8   33 1
    11    8   34 1
    12    9   10 2
    13    9   11 1
    14    9   12 1
    15    9   13 1
    16   13   14 1
    17   14   15 1
    18   14   35 1
    19   14   36 1
    20   15   16 1
    21   15   17 1
    22   15   37 1
    23   16   21 1
    24   17   18 1
    25   17   19 1
    26   17   38 1
    27   18   39 1
    28   19   20 1
    29   19   21 1
    30   19   40 1
    31   20   41 1
    32   21   22 1
    33   21   42 1
    34   22   23 ar
    35   22   31 ar
    36   23   24 ar
    37   23   43 1
    38   24   25 ar
    39   24   47 1
    40   25   26 ar
    41   25   31 ar
    42   26   27 1
    43   26   28 ar
    44   27   44 1
    45   27   45 1
    46   28   29 ar
    47   29   30 ar
    48   29   46 1
    49   30   31 ar
@<TRIPOS>SUBSTRUCTURE
     1 ACP         1 GROUP 0 A     ****
@<TRIPOS>MOLECULE
[[5-(6-amino-7,8-dihydropurin-8-ylium-9-yl)-3,4-dihydroxy-tetrahydrofuran-2-yl]methoxy-oxido-phosphoryl]oxy-[[hydroxy(oxido)phosphoryl]methyl]phosphinate
   47    49     1     0     0
SMALL
USER_CHARGES

@<TRIPOS>ATOM
      1 PG          0.7312   -5.7567    7.8462 P.3       1 ACP         1.3755
      2 O1G         0.6166   -4.8140    9.0214 O.co2     1 ACP        -0.8970
      3 O2G         1.9683   -5.8142    6.9799 O.co2     1 ACP        -0.8970
      4 O3G         0.3340   -7.2656    8.3212 O.3       1 ACP        -0.7959
      5 PB         -0.9938   -6.3597    5.1563 P.3       1 ACP         1.5194
      6 O1B        -2.2612   -5.8159    4.5393 O.co2     1 ACP        -0.8958
      7 O2B        -0.8113   -7.8299    5.4553 O.co2     1 ACP        -0.8958
      8 C3B        -0.7079   -5.4391    6.7326 C.3       1 ACP        -0.5612
      9 PA          0.7253   -5.9839    2.7667 P.3       1 ACP         1.6019
     10 O1A         0.7135   -7.4595    2.4317 O.co2     1 ACP        -0.9040
     11 O2A         1.9570   -5.1440    2.5058 O.co2     1 ACP        -0.9040
     12 O3A         0.3009   -5.8072    4.3337 O.3       1 ACP        -0.8156
     13 O5'        -0.5697   -5.2855    2.0524 O.3       1 ACP        -0.5465
     14 C5'        -0.7840   -3.8935    2.2172 C.3       1 ACP         0.2108
     15 C4'        -0.0724   -3.1466    1.1027 C.3       1 ACP         0.0552
     16 O4'        -0.8674   -3.1929   -0.0945 O.3       1 ACP        -0.3428
     17 C3'         0.1338   -1.6715    1.4027 C.3       1 ACP         0.0750
     18 O3'         1.2893   -1.4445    2.1808 O.3       1 ACP        -0.6066
     19 C2'         0.2158   -1.0724    0.0128 C.3       1 ACP         0.1185
     20 O2'         1.5141   -1.2448   -0.5513 O.3       1 ACP        -0.5858
     21 C1'        -0.7897   -1.9176   -0.7583 C.3       1 ACP         0.3826
     22 N9         -2.1040   -1.3333   -0.7704 N.pl3     1 ACP        -0.5729
     23 C8         -3.2304   -1.8262   -0.2767 C.ar      1 ACP         0.3288
     24 N7         -4.2847   -1.0309   -0.4481 N.pl3     1 ACP        -0.5338
     25 C5         -3.7951    0.0479   -1.0985 C.ar      1 ACP        -0.2581
     26 C6         -4.3691    1.1983   -1.5536 C.ar      1 ACP         0.7413
     27 N6         -5.7501    1.4047   -1.3573 N.pl3     1 ACP        -0.9512
     28 N1         -3.6289    2.1345   -2.1869 N.ar      1 ACP        -0.7699
     29 C2         -2.3041    1.8525   -2.3333 C.ar      1 ACP         0.6898
     30 N3         -1.6387    0.7492   -1.9218 N.ar      1 ACP        -0.6800
     31 C4         -2.4348   -0.1293   -1.3053 C.ar      1 ACP         0.6129
     32 HOG3        0.8620   -7.6861    9.0330 H         1 ACP         0.4199
     33 H3B1       -0.6578   -4.3771    6.4678 H         1 ACP         0.0672
     34 H3B2       -1.6099   -5.5835    7.3377 H         1 ACP         0.0672
     35 H5'1       -1.8599   -3.6946    2.1849 H         1 ACP         0.0277
     36 H5'2       -0.3934   -3.5881    3.1930 H         1 ACP         0.0277
     37 H4'         0.8886   -3.6447    0.8779 H         1 ACP         0.1249
     38 H3'        -0.7373   -1.2359    1.9870 H         1 ACP         0.0564
     39 HO3'        1.3408   -0.4870    2.3219 H         1 ACP         0.4511
     40 H2'        -0.0384   -0.0310    0.0096 H         1 ACP         0.0716
     41 HO2'        2.1463   -0.7958    0.0370 H         1 ACP         0.4454
     42 H1'        -0.4769   -2.1002   -1.8093 H         1 ACP         0.1310
     43 H8         -3.2974   -2.7789    0.2194 H         1 ACP         0.3565
     44 HN61       -6.2956    0.6838   -0.9296 H         1 ACP         0.4414
     45 HN62       -6.1788    2.2266   -1.7327 H         1 ACP         0.4414
     46 H2         -1.7135    2.6057   -2.8421 H         1 ACP         0.0676
     47 H47        -5.2337   -1.2102   -0.1507 H         1 ACP         0.5052
@<TRIPOS>BOND
     1    1    2 2
     2    1    3 1
     3    1    4 1
     4    1    8 1
     5    4   32 1
     6    5    6 2
     7    5    7 1
     8    5    8 1
     9    5   12 1
    10    8   33 1
    11    8   34 1
    12    9   10 2
    13    9   11 1
    14    9   12 1
    15    9   13 1
    16   13   14 1
    17   14   15 1
    18   14   35 1
    19   14   36 1
    20   15   16 1
    21   15   17 1
    22   15   37 1
    23   16   21 1
    24   17   18 1
    25   17   19 1
    26   17   38 1
    27   18   39 1
    28   19   20 1
    29   19   21 1
    30   19   40 1
    31   20   41 1
    32   21   22 1
    33   21   42 1
    34   22   23 ar
    35   22   31 ar
    36   23   24 ar
    37   23   43 1
    38   24   25 ar
    39   24   47 1
    40   25   26 ar
    41   25   31 ar
    42   26   27 1
    43   26   28 ar
    44   27   44 1
    45   27   45 1
    46   28   29 ar
    47   29   30 ar
    48   29   46 1
    49   30   31 ar
@<TRIPOS>SUBSTRUCTURE
     1 ACP         1 GROUP 0 A     ****
@<TRIPOS>MOLECULE
[[5-(6-amino-7,8-dihydropurin-8-ylium-9-yl)-3,4-dihydroxy-tetrahydrofuran-2-yl]methoxy-oxido-phosphoryl]oxy-[[hydroxy(oxido)phosphoryl]methyl]phosphinate
   47    49     1     0     0
SMALL
USER_CHARGES

@<TRIPOS>ATOM
      1 PG          1.7965   -0.8738   -7.2360 P.3       1 ACP         1.3755
      2 O1G         2.4502   -2.0428   -7.9351 O.co2     1 ACP        -0.8970
      3 O2G         2.5284   -0.0395   -6.2101 O.co2     1 ACP        -0.8970
      4 O3G         1.1158    0.1092   -8.3453 O.3       1 ACP        -0.7959
      5 PB          0.2277   -2.8244   -5.1602 P.3       1 ACP         1.5194
      6 O1B         0.8239   -4.0631   -5.7871 O.co2     1 ACP        -0.8958
      7 O2B        -1.1472   -2.8228   -4.5326 O.co2     1 ACP        -0.8958
      8 C3B         0.2483   -1.4927   -6.4409 C.3       1 ACP        -0.5612
      9 PA          2.0054   -2.7672   -2.7847 P.3       1 ACP         1.6019
     10 O1A         2.9308   -3.8905   -3.1989 O.co2     1 ACP        -0.9040
     11 O2A         0.9346   -2.9961   -1.7400 O.co2     1 ACP        -0.9040
     12 O3A         1.2984   -2.1600   -4.1258 O.3       1 ACP        -0.8156
     13 O5'         2.9202   -1.4821   -2.3524 O.3       1 ACP        -0.5465
     14 C5'         2.2816   -0.2918   -1.9206 C.3       1 ACP         0.2108
     15 C4'         2.7248    0.0226   -0.4980 C.3       1 ACP         0.0552
     16 O4'         2.4697    1.4219   -0.2462 O.3       1 ACP        -0.3428
     17 C3'         1.9404   -0.7419    0.5596 C.3       1 ACP         0.0750
     18 O3'         2.7418   -0.8086    1.7389 O.3       1 ACP        -0.6066
     19 C2'         0.7477    0.1630    0.7858 C.3       1 ACP         0.1185
     20 O2'         0.1373   -0.0577    2.0407 O.3       1 ACP        -0.5858
     21 C1'         1.3733    1.5427    0.6747 C.3       1 ACP         0.3826
     22 N9          0.4520    2.5240    0.1767 N.pl3     1 ACP        -0.5729
     23 C8          0.5305    3.2394   -0.9358 C.ar      1 ACP         0.3288
     24 N7         -0.4966    4.0680   -1.1145 N.pl3     1 ACP        -0.5338
     25 C5         -1.2879    3.8664   -0.0375 C.ar      1 ACP        -0.2581
     26 C6         -2.4754    4.4084    0.3577 C.ar      1 ACP         0.7413
     27 N6         -3.0892    5.3882   -0.4495 N.pl3     1 ACP        -0.9512
     28 N1         -3.0632    4.0158    1.5092 N.ar      1 ACP        -0.7699
     29 C2         -2.4008    3.0654    2.2262 C.ar      1 ACP         0.6898
     30 N3         -1.2259    2.4663    1.9260 N.ar      1 ACP        -0.6800
     31 C4         -0.7062    2.9047    0.7757 C.ar      1 ACP         0.6129
     32 HOG3        1.6924    0.5148   -9.0274 H         1 ACP         0.4199
     33 H3B1       -0.3954   -1.8371   -7.2580 H         1 ACP         0.0672
     34 H3B2       -0.2385   -0.6237   -5.9847 H         1 ACP         0.0672
     35 H5'1        2.5581    0.5235   -2.5966 H         1 ACP         0.0277
     36 H5'2        1.1974   -0.4370   -1.9607 H         1 ACP         0.0277
     37 H4'         3.8050   -0.1388   -0.4008 H         1 ACP         0.1249
     38 H3'         1.6784   -1.7629    0.2714 H         1 ACP         0.0564
     39 HO3'        3.5554   -1.2733    1.4914 H         1 ACP         0.4511
     40 H2'        -0.0011    0.0027    0.0003 H         1 ACP         0.0716
     41 HO2'        0.8082    0.1199    2.7232 H         1 ACP         0.4454
     42 H1'         1.7826    1.9024    1.6451 H         1 ACP         0.1310
     43 H8          1.3437    3.1645   -1.6367 H         1 ACP         0.3565
     44 HN61       -2.6210    5.7042   -1.2748 H         1 ACP         0.4414
     45 HN62       -3.9356    5.8187   -0.1356 H         1 ACP         0.4414
     46 H2         -2.8752    2.7532    3.1495 H         1 ACP         0.0676
     47 H47        -0.6372    4.7004   -1.8900 H         1 ACP         0.5052
@<TRIPOS>BOND
     1    1    2 2
     2    1    3 1
     3    1    4 1
     4    1    8 1
     5    4   32 1
     6    5    6 2
     7    5    7 1
     8    5    8 1
     9    5   12 1
    10    8   33 1
    11    8   34 1
    12    9   10 2
    13    9   11 1
    14    9   12 1
    15    9   13 1
    16   13   14 1
    17   14   15 1
    18   14   35 1
    19   14   36 1
    20   15   16 1
    21   15   17 1
    22   15   37 1
    23   16   21 1
    24   17   18 1
    25   17   19 1
    26   17   38 1
    27   18   39 1
    28   19   20 1
    29   19   21 1
    30   19   40 1
    31   20   41 1
    32   21   22 1
    33   21   42 1
    34   22   23 ar
    35   22   31 ar
    36   23   24 ar
    37   23   43 1
    38   24   25 ar
    39   24   47 1
    40   25   26 ar
    41   25   31 ar
    42   26   27 1
    43   26   28 ar
    44   27   44 1
    45   27   45 1
    46   28   29 ar
    47   29   30 ar
    48   29   46 1
    49   30   31 ar
@<TRIPOS>SUBSTRUCTURE
     1 ACP         1 GROUP 0 A     ****
@<TRIPOS>MOLECULE
[[5-(6-amino-7,8-dihydropurin-8-ylium-9-yl)-3,4-dihydroxy-tetrahydrofuran-2-yl]methoxy-oxido-phosphoryl]oxy-[[hydroxy(oxido)phosphoryl]methyl]phosphinate
   47    49     1     0     0
SMALL
USER_CHARGES

@<TRIPOS>ATOM
      1 PG          4.5283   -3.5847   -4.4543 P.3       1 ACP         1.3755
      2 O1G         4.2435   -2.8272   -3.1784 O.co2     1 ACP        -0.8970
      3 O2G         5.5944   -4.6530   -4.5337 O.co2     1 ACP        -0.8970
      4 O3G         3.1317   -4.1694   -5.0605 O.3       1 ACP        -0.7959
      5 PB          3.6903   -1.0441   -6.3033 P.3       1 ACP         1.5194
      6 O1B         2.4578   -1.7524   -6.8151 O.co2     1 ACP        -0.8958
      7 O2B         4.4509   -0.0445   -7.1439 O.co2     1 ACP        -0.8958
      8 C3B         4.8928   -2.3425   -5.7721 C.3       1 ACP        -0.5612
      9 PA          2.2847    0.7049   -4.3612 P.3       1 ACP         1.6019
     10 O1A         0.9061    0.0980   -4.5052 O.co2     1 ACP        -0.9040
     11 O2A         2.6178    2.0264   -5.0194 O.co2     1 ACP        -0.9040
     12 O3A         3.3878   -0.4019   -4.8356 O.3       1 ACP        -0.8156
     13 O5'         2.6459    0.7852   -2.7681 O.3       1 ACP        -0.5465
     14 C5'         2.2816   -0.2918   -1.9206 C.3       1 ACP         0.2108
     15 C4'         2.7248    0.0226   -0.4980 C.3       1 ACP         0.0552
     16 O4'         2.4697    1.4219   -0.2462 O.3       1 ACP        -0.3428
     17 C3'         1.9404   -0.7419    0.5596 C.3       1 ACP         0.0750
     18 O3'         2.7418   -0.8086    1.7389 O.3       1 ACP        -0.6066
     19 C2'         0.7477    0.1630    0.7858 C.3       1 ACP         0.1185
     20 O2'         0.1373   -0.0577    2.0407 O.3       1 ACP        -0.5858
     21 C1'         1.3733    1.5427    0.6747 C.3       1 ACP         0.3826
     22 N9          0.4520    2.5240    0.1767 N.pl3     1 ACP        -0.5729
     23 C8         -0.2172    2.5216   -0.9668 C.ar      1 ACP         0.3288
     24 N7         -1.0011    3.5855   -1.1321 N.pl3     1 ACP        -0.5338
     25 C5         -0.8184    4.3200   -0.0123 C.ar      1 ACP        -0.2581
     26 C6         -1.3349    5.5079    0.4144 C.ar      1 ACP         0.7413
     27 N6         -2.2567    6.1930   -0.4036 N.pl3     1 ACP        -0.9512
     28 N1         -0.9716    6.0291    1.6069 N.ar      1 ACP        -0.7699
     29 C2         -0.0765    5.3009    2.3312 C.ar      1 ACP         0.6898
     30 N3          0.4933    4.1191    2.0023 N.ar      1 ACP        -0.6800
     31 C4          0.0865    3.6675    0.8123 C.ar      1 ACP         0.6129
     32 HOG3        2.6071   -4.7903   -4.5115 H         1 ACP         0.4199
     33 H3B1        5.1458   -2.9179   -6.6695 H         1 ACP         0.0672
     34 H3B2        5.7976   -1.8100   -5.4587 H         1 ACP         0.0672
     35 H5'1        1.1958   -0.4240   -1.9628 H         1 ACP         0.0277
     36 H5'2        2.7668   -1.2049   -2.2799 H         1 ACP         0.0277
     37 H4'         3.8050   -0.1388   -0.4008 H         1 ACP         0.1249
     38 H3'         1.6784   -1.7629    0.2714 H         1 ACP         0.0564
     39 HO3'        2.2232   -1.2979    2.3953 H         1 ACP         0.4511
     40 H2'        -0.0011    0.0027    0.0003 H         1 ACP         0.0716
     41 HO2'       -0.6141    0.5574    2.1082 H         1 ACP         0.4454
     42 H1'         1.7826    1.9024    1.6451 H         1 ACP         0.1310
     43 H8         -0.1423    1.7373   -1.6999 H         1 ACP         0.3565
     44 HN61       -2.4811    5.8206   -1.3042 H         1 ACP         0.4414
     45 HN62       -2.5986    7.0863   -0.1113 H         1 ACP         0.4414
     46 H2          0.2128    5.7222    3.2871 H         1 ACP         0.0676
     47 H47        -1.5947    3.7835   -1.9255 H         1 ACP         0.5052
@<TRIPOS>BOND
     1    1    2 2
     2    1    3 1
     3    1    4 1
     4    1    8 1
     5    4   32 1
     6    5    6 2
     7    5    7 1
     8    5    8 1
     9    5   12 1
    10    8   33 1
    11    8   34 1
    12    9   10 2
    13    9   11 1
    14    9   12 1
    15    9   13 1
    16   13   14 1
    17   14   15 1
    18   14   35 1
    19   14   36 1
    20   15   16 1
    21   15   17 1
    22   15   37 1
    23   16   21 1
    24   17   18 1
    25   17   19 1
    26   17   38 1
    27   18   39 1
    28   19   20 1
    29   19   21 1
    30   19   40 1
    31   20   41 1
    32   21   22 1
    33   21   42 1
    34   22   23 ar
    35   22   31 ar
    36   23   24 ar
    37   23   43 1
    38   24   25 ar
    39   24   47 1
    40   25   26 ar
    41   25   31 ar
    42   26   27 1
    43   26   28 ar
    44   27   44 1
    45   27   45 1
    46   28   29 ar
    47   29   30 ar
    48   29   46 1
    49   30   31 ar
@<TRIPOS>SUBSTRUCTURE
     1 ACP         1 GROUP 0 A     ****
@<TRIPOS>MOLECULE
[[5-(6-amino-7,8-dihydropurin-8-ylium-9-yl)-3,4-dihydroxy-tetrahydrofuran-2-yl]methoxy-oxido-phosphoryl]oxy-[[hydroxy(oxido)phosphoryl]methyl]phosphinate
   47    49     1     0     0
SMALL
USER_CHARGES

@<TRIPOS>ATOM
      1 PG          3.2358    1.1595   -6.3130 P.3       1 ACP         1.3755
      2 O1G         4.4622    1.9887   -6.0110 O.co2     1 ACP        -0.8970
      3 O2G         2.1052    1.0065   -5.3218 O.co2     1 ACP        -0.8970
      4 O3G         2.6283    1.5984   -7.7615 O.3       1 ACP        -0.7959
      5 PB          4.7841   -1.6168   -5.6274 P.3       1 ACP         1.5194
      6 O1B         6.0663   -0.8863   -5.3033 O.co2     1 ACP        -0.8958
      7 O2B         4.7781   -3.0099   -6.2136 O.co2     1 ACP        -0.8958
      8 C3B         3.8066   -0.5381   -6.7653 C.3       1 ACP        -0.5612
      9 PA          3.9654   -2.1111   -2.8181 P.3       1 ACP         1.6019
     10 O1A         5.0498   -1.2970   -2.1465 O.co2     1 ACP        -0.9040
     11 O2A         4.0486   -3.6217   -2.8585 O.co2     1 ACP        -0.9040
     12 O3A         3.7791   -1.5622   -4.3449 O.3       1 ACP        -0.8156
     13 O5'         2.5237   -1.6631   -2.1889 O.3       1 ACP        -0.5465
     14 C5'         2.2816   -0.2918   -1.9206 C.3       1 ACP         0.2108
     15 C4'         2.7248    0.0226   -0.4980 C.3       1 ACP         0.0552
     16 O4'         2.4697    1.4219   -0.2462 O.3       1 ACP        -0.3428
     17 C3'         1.9404   -0.7419    0.5596 C.3       1 ACP         0.0750
     18 O3'         2.7418   -0.8086    1.7389 O.3       1 ACP        -0.6066
     19 C2'         0.7477    0.1630    0.7858 C.3       1 ACP         0.1185
     20 O2'         0.1373   -0.0577    2.0407 O.3       1 ACP        -0.5858
     21 C1'         1.3733    1.5427    0.6747 C.3       1 ACP         0.3826
     22 N9          0.4520    2.5240    0.1767 N.pl3     1 ACP        -0.5729
     23 C8         -0.8602    2.5861    0.3496 C.ar      1 ACP         0.3288
     24 N7         -1.4308    3.6326   -0.2443 N.pl3     1 ACP        -0.5338
     25 C5         -0.4080    4.2856   -0.8394 C.ar      1 ACP        -0.2581
     26 C6         -0.3432    5.4196   -1.5943 C.ar      1 ACP         0.7413
     27 N6         -1.5276    6.1333   -1.8702 N.pl3     1 ACP        -0.9512
     28 N1          0.8395    5.8603   -2.0764 N.ar      1 ACP        -0.7699
     29 C2          1.9319    5.1095   -1.7617 C.ar      1 ACP         0.6898
     30 N3          1.9773    3.9761   -1.0249 N.ar      1 ACP        -0.6800
     31 C4          0.7724    3.6031   -0.5836 C.ar      1 ACP         0.6129
     32 HOG3        2.3400    2.5277   -7.8857 H         1 ACP         0.4199
     33 H3B1        4.4048   -0.4242   -7.6762 H         1 ACP         0.0672
     34 H3B2        2.9103   -1.1092   -7.0316 H         1 ACP         0.0672
     35 H5'1        2.8429    0.3140   -2.6391 H         1 ACP         0.0277
     36 H5'2        1.2125   -0.0906   -2.0420 H         1 ACP         0.0277
     37 H4'         3.8050   -0.1388   -0.4008 H         1 ACP         0.1249
     38 H3'         1.6784   -1.7629    0.2714 H         1 ACP         0.0564
     39 HO3'        2.2232   -1.2979    2.3953 H         1 ACP         0.4511
     40 H2'        -0.0011    0.0027    0.0003 H         1 ACP         0.0716
     41 HO2'       -0.1563   -0.9855    2.0596 H         1 ACP         0.4454
     42 H1'         1.7826    1.9024    1.6451 H         1 ACP         0.1310
     43 H8         -1.4217    1.8638    0.9164 H         1 ACP         0.3565
     44 HN61       -2.4023    5.7711   -1.5477 H         1 ACP         0.4414
     45 HN62       -1.4857    6.9379   -2.4627 H         1 ACP         0.4414
     46 H2          2.8789    5.4660   -2.1503 H         1 ACP         0.0676
     47 H47        -2.4129    3.8706   -0.2402 H         1 ACP         0.5052
@<TRIPOS>BOND
     1    1    2 2
     2    1    3 1
     3    1    4 1
     4    1    8 1
     5    4   32 1
     6    5    6 2
     7    5    7 1
     8    5    8 1
     9    5   12 1
    10    8   33 1
    11    8   34 1
    12    9   10 2
    13    9   11 1
    14    9   12 1
    15    9   13 1
    16   13   14 1
    17   14   15 1
    18   14   35 1
    19   14   36 1
    20   15   16 1
    21   15   17 1
    22   15   37 1
    23   16   21 1
    24   17   18 1
    25   17   19 1
    26   17   38 1
    27   18   39 1
    28   19   20 1
    29   19   21 1
    30   19   40 1
    31   20   41 1
    32   21   22 1
    33   21   42 1
    34   22   23 ar
    35   22   31 ar
    36   23   24 ar
    37   23   43 1
    38   24   25 ar
    39   24   47 1
    40   25   26 ar
    41   25   31 ar
    42   26   27 1
    43   26   28 ar
    44   27   44 1
    45   27   45 1
    46   28   29 ar
    47   29   30 ar
    48   29   46 1
    49   30   31 ar
@<TRIPOS>SUBSTRUCTURE
     1 ACP         1 GROUP 0 A     ****
@<TRIPOS>MOLECULE
[[5-(6-amino-7,8-dihydropurin-8-ylium-9-yl)-3,4-dihydroxy-tetrahydrofuran-2-yl]methoxy-oxido-phosphoryl]oxy-[[hydroxy(oxido)phosphoryl]methyl]phosphinate
   47    49     1     0     0
SMALL
USER_CHARGES

@<TRIPOS>ATOM
      1 PG         -1.0325   -2.4920   -6.9723 P.3       1 ACP         1.3755
      2 O1G        -1.9594   -1.7465   -7.9039 O.co2     1 ACP        -0.8970
      3 O2G        -1.5219   -3.1294   -5.6922 O.co2     1 ACP        -0.8970
      4 O3G        -0.1713   -3.5840   -7.8243 O.3       1 ACP        -0.7959
      5 PB          1.7357   -1.8251   -5.4014 P.3       1 ACP         1.5194
      6 O1B         2.6542   -0.6309   -5.2874 O.co2     1 ACP        -0.8958
      7 O2B         2.2314   -3.1814   -5.8472 O.co2     1 ACP        -0.8958
      8 C3B         0.3493   -1.3500   -6.5268 C.3       1 ACP        -0.5612
      9 PA          1.2676   -2.6330   -2.5845 P.3       1 ACP         1.6019
     10 O1A         1.8014   -4.0298   -2.8163 O.co2     1 ACP        -0.9040
     11 O2A         0.1253   -2.3943   -1.6209 O.co2     1 ACP        -0.9040
     12 O3A         0.8686   -1.9867   -4.0302 O.3       1 ACP        -0.8156
     13 O5'         2.5237   -1.6631   -2.1889 O.3       1 ACP        -0.5465
     14 C5'         2.2816   -0.2918   -1.9206 C.3       1 ACP         0.2108
     15 C4'         2.7248    0.0226   -0.4980 C.3       1 ACP         0.0552
     16 O4'         2.4697    1.4219   -0.2462 O.3       1 ACP        -0.3428
     17 C3'         1.9404   -0.7419    0.5596 C.3       1 ACP         0.0750
     18 O3'         2.7418   -0.8086    1.7389 O.3       1 ACP        -0.6066
     19 C2'         0.7477    0.1630    0.7858 C.3       1 ACP         0.1185
     20 O2'         0.1373   -0.0577    2.0407 O.3       1 ACP        -0.5858
     21 C1'         1.3733    1.5427    0.6747 C.3       1 ACP         0.3826
     22 N9          0.4520    2.5240    0.1767 N.pl3     1 ACP        -0.5729
     23 C8         -0.8602    2.5861    0.3496 C.ar      1 ACP         0.3288
     24 N7         -1.4308    3.6326   -0.2443 N.pl3     1 ACP        -0.5338
     25 C5         -0.4080    4.2856   -0.8394 C.ar      1 ACP        -0.2581
     26 C6         -0.3432    5.4196   -1.5943 C.ar      1 ACP         0.7413
     27 N6         -1.5276    6.1333   -1.8702 N.pl3     1 ACP        -0.9512
     28 N1          0.8395    5.8603   -2.0764 N.ar      1 ACP        -0.7699
     29 C2          1.9319    5.1095   -1.7617 C.ar      1 ACP         0.6898
     30 N3          1.9773    3.9761   -1.0249 N.ar      1 ACP        -0.6800
     31 C4          0.7724    3.6031   -0.5836 C.ar      1 ACP         0.6129
     32 HOG3       -0.6554   -4.2847   -8.3109 H         1 ACP         0.4199
     33 H3B1       -0.1200   -0.4640   -6.0851 H         1 ACP         0.0672
     34 H3B2        0.8145   -1.0389   -7.4687 H         1 ACP         0.0672
     35 H5'1        2.8429    0.3140   -2.6391 H         1 ACP         0.0277
     36 H5'2        1.2125   -0.0906   -2.0420 H         1 ACP         0.0277
     37 H4'         3.8050   -0.1388   -0.4008 H         1 ACP         0.1249
     38 H3'         1.6784   -1.7629    0.2714 H         1 ACP         0.0564
     39 HO3'        2.2232   -1.2979    2.3953 H         1 ACP         0.4511
     40 H2'        -0.0011    0.0027    0.0003 H         1 ACP         0.0716
     41 HO2'       -0.1563   -0.9855    2.0596 H         1 ACP         0.4454
     42 H1'         1.7826    1.9024    1.6451 H         1 ACP         0.1310
     43 H8         -1.4217    1.8638    0.9164 H         1 ACP         0.3565
     44 HN61       -2.4023    5.7711   -1.5477 H         1 ACP         0.4414
     45 HN62       -1.4857    6.9379   -2.4627 H         1 ACP         0.4414
     46 H2          2.8789    5.4660   -2.1503 H         1 ACP         0.0676
     47 H47        -2.4129    3.8706   -0.2402 H         1 ACP         0.5052
@<TRIPOS>BOND
     1    1    2 2
     2    1    3 1
     3    1    4 1
     4    1    8 1
     5    4   32 1
     6    5    6 2
     7    5    7 1
     8    5    8 1
     9    5   12 1
    10    8   33 1
    11    8   34 1
    12    9   10 2
    13    9   11 1
    14    9   12 1
    15    9   13 1
    16   13   14 1
    17   14   15 1
    18   14   35 1
    19   14   36 1
    20   15   16 1
    21   15   17 1
    22   15   37 1
    23   16   21 1
    24   17   18 1
    25   17   19 1
    26   17   38 1
    27   18   39 1
    28   19   20 1
    29   19   21 1
    30   19   40 1
    31   20   41 1
    32   21   22 1
    33   21   42 1
    34   22   23 ar
    35   22   31 ar
    36   23   24 ar
    37   23   43 1
    38   24   25 ar
    39   24   47 1
    40   25   26 ar
    41   25   31 ar
    42   26   27 1
    43   26   28 ar
    44   27   44 1
    45   27   45 1
    46   28   29 ar
    47   29   30 ar
    48   29   46 1
    49   30   31 ar
@<TRIPOS>SUBSTRUCTURE
     1 ACP         1 GROUP 0 A     ****
@<TRIPOS>MOLECULE
[[5-(6-amino-7,8-dihydropurin-8-ylium-9-yl)-3,4-dihydroxy-tetrahydrofuran-2-yl]methoxy-oxido-phosphoryl]oxy-[[hydroxy(oxido)phosphoryl]methyl]phosphinate
   47    49     1     0     0
SMALL
USER_CHARGES

@<TRIPOS>ATOM
      1 PG         -5.0896   -2.8612    3.5097 P.3       1 ACP         1.3755
      2 O1G        -6.3634   -2.3333    4.1275 O.co2     1 ACP        -0.8970
      3 O2G        -4.2137   -2.0079    2.6216 O.co2     1 ACP        -0.8970
      4 O3G        -4.1729   -3.5542    4.6670 O.3       1 ACP        -0.7959
      5 PB         -4.2757   -5.3851    1.6276 P.3       1 ACP         1.5194
      6 O1B        -3.6589   -4.4807    0.5862 O.co2     1 ACP        -0.8958
      7 O2B        -4.9334   -6.6969    1.2658 O.co2     1 ACP        -0.8958
      8 C3B        -5.5194   -4.3860    2.5598 C.3       1 ACP        -0.5612
      9 PA         -1.7212   -6.2756    2.8475 P.3       1 ACP         1.6019
     10 O1A        -1.7898   -7.6341    2.1847 O.co2     1 ACP        -0.9040
     11 O2A        -1.1337   -6.1229    4.2339 O.co2     1 ACP        -0.9040
     12 O3A        -3.2188   -5.6244    2.8457 O.3       1 ACP        -0.8156
     13 O5'        -0.9728   -5.2427    1.8237 O.3       1 ACP        -0.5465
     14 C5'        -0.7840   -3.8935    2.2172 C.3       1 ACP         0.2108
     15 C4'        -0.0724   -3.1466    1.1027 C.3       1 ACP         0.0552
     16 O4'        -0.8674   -3.1929   -0.0945 O.3       1 ACP        -0.3428
     17 C3'         0.1338   -1.6715    1.4027 C.3       1 ACP         0.0750
     18 O3'         1.2893   -1.4445    2.1808 O.3       1 ACP        -0.6066
     19 C2'         0.2158   -1.0724    0.0128 C.3       1 ACP         0.1185
     20 O2'         1.5141   -1.2448   -0.5513 O.3       1 ACP        -0.5858
     21 C1'        -0.7897   -1.9176   -0.7583 C.3       1 ACP         0.3826
     22 N9         -2.1040   -1.3333   -0.7704 N.pl3     1 ACP        -0.5729
     23 C8         -2.8739   -1.0133    0.2593 C.ar      1 ACP         0.3288
     24 N7         -4.0439   -0.4818   -0.0902 N.pl3     1 ACP        -0.5338
     25 C5         -4.0184   -0.4615   -1.4414 C.ar      1 ACP        -0.2581
     26 C6         -4.9120   -0.0399   -2.3814 C.ar      1 ACP         0.7413
     27 N6         -6.1459    0.5018   -1.9665 N.pl3     1 ACP        -0.9512
     28 N1         -4.6250   -0.1374   -3.6981 N.ar      1 ACP        -0.7699
     29 C2         -3.4114   -0.6729   -4.0088 C.ar      1 ACP         0.6898
     30 N3         -2.4579   -1.1190   -3.1595 N.ar      1 ACP        -0.6800
     31 C4         -2.8124   -0.9904   -1.8776 C.ar      1 ACP         0.6129
     32 HOG3       -3.8761   -3.0023    5.4216 H         1 ACP         0.4199
     33 H3B1       -6.2840   -4.0860    1.8345 H         1 ACP         0.0672
     34 H3B2       -5.9929   -5.0738    3.2691 H         1 ACP         0.0672
     35 H5'1       -1.7614   -3.4427    2.4167 H         1 ACP         0.0277
     36 H5'2       -0.1870   -3.8723    3.1344 H         1 ACP         0.0277
     37 H4'         0.8886   -3.6447    0.8779 H         1 ACP         0.1249
     38 H3'        -0.7373   -1.2359    1.9870 H         1 ACP         0.0564
     39 HO3'        1.3408   -0.4870    2.3219 H         1 ACP         0.4511
     40 H2'        -0.0384   -0.0310    0.0096 H         1 ACP         0.0716
     41 HO2'        2.1463   -0.7958    0.0370 H         1 ACP         0.4454
     42 H1'        -0.4769   -2.1002   -1.8093 H         1 ACP         0.1310
     43 H8         -2.5891   -1.1636    1.2862 H         1 ACP         0.3565
     44 HN61       -6.7806    0.8540   -2.6545 H         1 ACP         0.4414
     45 HN62       -6.3265    0.6117   -0.9889 H         1 ACP         0.4414
     46 H2         -3.1848   -0.7497   -5.0660 H         1 ACP         0.0676
     47 H47        -4.7768   -0.1684    0.5309 H         1 ACP         0.5052
@<TRIPOS>BOND
     1    1    2 2
     2    1    3 1
     3    1    4 1
     4    1    8 1
     5    4   32 1
     6    5    6 2
     7    5    7 1
     8    5    8 1
     9    5   12 1
    10    8   33 1
    11    8   34 1
    12    9   10 2
    13    9   11 1
    14    9   12 1
    15    9   13 1
    16   13   14 1
    17   14   15 1
    18   14   35 1
    19   14   36 1
    20   15   16 1
    21   15   17 1
    22   15   37 1
    23   16   21 1
    24   17   18 1
    25   17   19 1
    26   17   38 1
    27   18   39 1
    28   19   20 1
    29   19   21 1
    30   19   40 1
    31   20   41 1
    32   21   22 1
    33   21   42 1
    34   22   23 ar
    35   22   31 ar
    36   23   24 ar
    37   23   43 1
    38   24   25 ar
    39   24   47 1
    40   25   26 ar
    41   25   31 ar
    42   26   27 1
    43   26   28 ar
    44   27   44 1
    45   27   45 1
    46   28   29 ar
    47   29   30 ar
    48   29   46 1
    49   30   31 ar
@<TRIPOS>SUBSTRUCTURE
     1 ACP         1 GROUP 0 A     ****
@<TRIPOS>MOLECULE
[[5-(6-amino-7,8-dihydropurin-8-ylium-9-yl)-3,4-dihydroxy-tetrahydrofuran-2-yl]methoxy-oxido-phosphoryl]oxy-[[hydroxy(oxido)phosphoryl]methyl]phosphinate
   47    49     1     0     0
SMALL
USER_CHARGES

@<TRIPOS>ATOM
      1 PG          1.5545   -2.5282   -6.7473 P.3       1 ACP         1.3755
      2 O1G         1.2414   -1.3145   -5.9037 O.co2     1 ACP        -0.8970
      3 O2G         0.4813   -3.2859   -7.4946 O.co2     1 ACP        -0.8970
      4 O3G         2.7780   -2.1782   -7.7673 O.3       1 ACP        -0.7959
      5 PB          4.0470   -3.3743   -4.8377 P.3       1 ACP         1.5194
      6 O1B         5.0546   -3.0549   -5.9173 O.co2     1 ACP        -0.8958
      7 O2B         4.2812   -4.4627   -3.8155 O.co2     1 ACP        -0.8958
      8 C3B         2.4404   -3.7420   -5.6731 C.3       1 ACP        -0.5612
      9 PA          4.4771   -0.9086   -3.2433 P.3       1 ACP         1.6019
     10 O1A         5.4067   -0.2050   -4.2080 O.co2     1 ACP        -0.9040
     11 O2A         5.0200   -1.5784   -1.9995 O.co2     1 ACP        -0.9040
     12 O3A         3.5986   -2.0028   -4.0787 O.3       1 ACP        -0.8156
     13 O5'         3.2883    0.1336   -2.8242 O.3       1 ACP        -0.5465
     14 C5'         2.2816   -0.2918   -1.9206 C.3       1 ACP         0.2108
     15 C4'         2.7248    0.0226   -0.4980 C.3       1 ACP         0.0552
     16 O4'         2.4697    1.4219   -0.2462 O.3       1 ACP        -0.3428
     17 C3'         1.9404   -0.7419    0.5596 C.3       1 ACP         0.0750
     18 O3'         2.7418   -0.8086    1.7389 O.3       1 ACP        -0.6066
     19 C2'         0.7477    0.1630    0.7858 C.3       1 ACP         0.1185
     20 O2'         0.1373   -0.0577    2.0407 O.3       1 ACP        -0.5858
     21 C1'         1.3733    1.5427    0.6747 C.3       1 ACP         0.3826
     22 N9          0.4520    2.5240    0.1767 N.pl3     1 ACP        -0.5729
     23 C8         -0.5899    2.3466   -0.6224 C.ar      1 ACP         0.3288
     24 N7         -1.2514    3.4689   -0.8989 N.pl3     1 ACP        -0.5338
     25 C5         -0.5826    4.4323   -0.2272 C.ar      1 ACP        -0.2581
     26 C6         -0.7636    5.7789   -0.1086 C.ar      1 ACP         0.7413
     27 N6         -1.8382    6.3927   -0.7843 N.pl3     1 ACP        -0.9512
     28 N1          0.0741    6.5233    0.6461 N.ar      1 ACP        -0.7699
     29 C2          1.0845    5.8486    1.2626 C.ar      1 ACP         0.6898
     30 N3          1.3516    4.5236    1.2116 N.ar      1 ACP        -0.6800
     31 C4          0.4827    3.8546    0.4481 C.ar      1 ACP         0.6129
     32 HOG3        2.6555   -1.4490   -8.4119 H         1 ACP         0.4199
     33 H3B1        2.6084   -4.6296   -6.2931 H         1 ACP         0.0672
     34 H3B2        1.7415   -4.0253   -4.8783 H         1 ACP         0.0672
     35 H5'1        1.3500    0.2325   -2.1560 H         1 ACP         0.0277
     36 H5'2        2.1267   -1.3683   -2.0444 H         1 ACP         0.0277
     37 H4'         3.8050   -0.1388   -0.4008 H         1 ACP         0.1249
     38 H3'         1.6784   -1.7629    0.2714 H         1 ACP         0.0564
     39 HO3'        2.2232   -1.2979    2.3953 H         1 ACP         0.4511
     40 H2'        -0.0011    0.0027    0.0003 H         1 ACP         0.0716
     41 HO2'       -0.6141    0.5574    2.1082 H         1 ACP         0.4454
     42 H1'         1.7826    1.9024    1.6451 H         1 ACP         0.1310
     43 H8         -0.8833    1.3888   -1.0158 H         1 ACP         0.3565
     44 HN61       -2.4225    5.8385   -1.3773 H         1 ACP         0.4414
     45 HN62       -1.9421    7.3862   -0.7348 H         1 ACP         0.4414
     46 H2          1.7546    6.4491    1.8670 H         1 ACP         0.0676
     47 H47        -2.0705    3.5612   -1.4834 H         1 ACP         0.5052
@<TRIPOS>BOND
     1    1    2 2
     2    1    3 1
     3    1    4 1
     4    1    8 1
     5    4   32 1
     6    5    6 2
     7    5    7 1
     8    5    8 1
     9    5   12 1
    10    8   33 1
    11    8   34 1
    12    9   10 2
    13    9   11 1
    14    9   12 1
    15    9   13 1
    16   13   14 1
    17   14   15 1
    18   14   35 1
    19   14   36 1
    20   15   16 1
    21   15   17 1
    22   15   37 1
    23   16   21 1
    24   17   18 1
    25   17   19 1
    26   17   38 1
    27   18   39 1
    28   19   20 1
    29   19   21 1
    30   19   40 1
    31   20   41 1
    32   21   22 1
    33   21   42 1
    34   22   23 ar
    35   22   31 ar
    36   23   24 ar
    37   23   43 1
    38   24   25 ar
    39   24   47 1
    40   25   26 ar
    41   25   31 ar
    42   26   27 1
    43   26   28 ar
    44   27   44 1
    45   27   45 1
    46   28   29 ar
    47   29   30 ar
    48   29   46 1
    49   30   31 ar
@<TRIPOS>SUBSTRUCTURE
     1 ACP         1 GROUP 0 A     ****
@<TRIPOS>MOLECULE
[[5-(6-amino-7,8-dihydropurin-8-ylium-9-yl)-3,4-dihydroxy-tetrahydrofuran-2-yl]methoxy-oxido-phosphoryl]oxy-[[hydroxy(oxido)phosphoryl]methyl]phosphinate
   47    49     1     0     0
SMALL
USER_CHARGES

@<TRIPOS>ATOM
      1 PG         -2.2725   -7.8283    6.2105 P.3       1 ACP         1.3755
      2 O1G        -3.7142   -8.1278    6.5490 O.co2     1 ACP        -0.8970
      3 O2G        -1.7011   -6.4316    6.2935 O.co2     1 ACP        -0.8970
      4 O3G        -1.3007   -8.8582    7.0197 O.3       1 ACP        -0.7959
      5 PB         -0.3237   -8.3081    3.6517 P.3       1 ACP         1.5194
      6 O1B        -0.4695   -8.9293    2.2822 O.co2     1 ACP        -0.8958
      7 O2B         0.7329   -8.7619    4.6325 O.co2     1 ACP        -0.8958
      8 C3B        -1.9587   -8.4520    4.5003 C.3       1 ACP        -0.5612
      9 PA          0.9395   -5.6783    3.1082 P.3       1 ACP         1.6019
     10 O1A         1.2903   -5.9200    1.6563 O.co2     1 ACP        -0.9040
     11 O2A         2.0041   -5.7530    4.1814 O.co2     1 ACP        -0.9040
     12 O3A        -0.2802   -6.6837    3.5186 O.3       1 ACP        -0.8156
     13 O5'         0.1597   -4.2446    3.2157 O.3       1 ACP        -0.5465
     14 C5'        -0.7840   -3.8935    2.2172 C.3       1 ACP         0.2108
     15 C4'        -0.0724   -3.1466    1.1027 C.3       1 ACP         0.0552
     16 O4'        -0.8674   -3.1929   -0.0945 O.3       1 ACP        -0.3428
     17 C3'         0.1338   -1.6715    1.4027 C.3       1 ACP         0.0750
     18 O3'         1.2893   -1.4445    2.1808 O.3       1 ACP        -0.6066
     19 C2'         0.2158   -1.0724    0.0128 C.3       1 ACP         0.1185
     20 O2'         1.5141   -1.2448   -0.5513 O.3       1 ACP        -0.5858
     21 C1'        -0.7897   -1.9176   -0.7583 C.3       1 ACP         0.3826
     22 N9         -2.1040   -1.3333   -0.7704 N.pl3     1 ACP        -0.5729
     23 C8         -3.0822   -1.4850    0.1102 C.ar      1 ACP         0.3288
     24 N7         -4.1844   -0.7999   -0.1888 N.pl3     1 ACP        -0.5338
     25 C5         -3.8875   -0.1651   -1.3445 C.ar      1 ACP        -0.2581
     26 C6         -4.5941    0.6799   -2.1486 C.ar      1 ACP         0.7413
     27 N6         -5.9138    1.0274   -1.7939 N.pl3     1 ACP        -0.9512
     28 N1         -4.0421    1.1824   -3.2748 N.ar      1 ACP        -0.7699
     29 C2         -2.7637    0.7937   -3.5405 C.ar      1 ACP         0.6898
     30 N3         -1.9788   -0.0343   -2.8139 N.ar      1 ACP        -0.6800
     31 C4         -2.5915   -0.4902   -1.7174 C.ar      1 ACP         0.6129
     32 HOG3       -1.3336   -8.8597    8.0001 H         1 ACP         0.4199
     33 H3B1       -2.6888   -7.9500    3.8558 H         1 ACP         0.0672
     34 H3B2       -2.2061   -9.5193    4.5060 H         1 ACP         0.0672
     35 H5'1       -1.2472   -4.8069    1.8308 H         1 ACP         0.0277
     36 H5'2       -1.5578   -3.2634    2.6671 H         1 ACP         0.0277
     37 H4'         0.8886   -3.6447    0.8779 H         1 ACP         0.1249
     38 H3'        -0.7373   -1.2359    1.9870 H         1 ACP         0.0564
     39 HO3'        1.1626   -1.9325    3.0084 H         1 ACP         0.4511
     40 H2'        -0.0384   -0.0310    0.0096 H         1 ACP         0.0716
     41 HO2'        1.4998   -0.8412   -1.4369 H         1 ACP         0.4454
     42 H1'        -0.4769   -2.1002   -1.8093 H         1 ACP         0.1310
     43 H8         -3.0031   -2.1011    0.9891 H         1 ACP         0.3565
     44 HN61       -6.3271    0.6117   -0.9836 H         1 ACP         0.4414
     45 HN62       -6.4471    1.6092   -2.4083 H         1 ACP         0.4414
     46 H2         -2.3243    1.1986   -4.4449 H         1 ACP         0.0676
     47 H47        -5.0436   -0.7722    0.3425 H         1 ACP         0.5052
@<TRIPOS>BOND
     1    1    2 2
     2    1    3 1
     3    1    4 1
     4    1    8 1
     5    4   32 1
     6    5    6 2
     7    5    7 1
     8    5    8 1
     9    5   12 1
    10    8   33 1
    11    8   34 1
    12    9   10 2
    13    9   11 1
    14    9   12 1
    15    9   13 1
    16   13   14 1
    17   14   15 1
    18   14   35 1
    19   14   36 1
    20   15   16 1
    21   15   17 1
    22   15   37 1
    23   16   21 1
    24   17   18 1
    25   17   19 1
    26   17   38 1
    27   18   39 1
    28   19   20 1
    29   19   21 1
    30   19   40 1
    31   20   41 1
    32   21   22 1
    33   21   42 1
    34   22   23 ar
    35   22   31 ar
    36   23   24 ar
    37   23   43 1
    38   24   25 ar
    39   24   47 1
    40   25   26 ar
    41   25   31 ar
    42   26   27 1
    43   26   28 ar
    44   27   44 1
    45   27   45 1
    46   28   29 ar
    47   29   30 ar
    48   29   46 1
    49   30   31 ar
@<TRIPOS>SUBSTRUCTURE
     1 ACP         1 GROUP 0 A     ****
@<TRIPOS>MOLECULE
[[5-(6-amino-7,8-dihydropurin-8-ylium-9-yl)-3,4-dihydroxy-tetrahydrofuran-2-yl]methoxy-oxido-phosphoryl]oxy-[[hydroxy(oxido)phosphoryl]methyl]phosphinate
   47    49     1     0     0
SMALL
USER_CHARGES

@<TRIPOS>ATOM
      1 PG         -1.3167    0.7383   -4.8018 P.3       1 ACP         1.3755
      2 O1G        -0.5095   -0.2005   -3.9357 O.co2     1 ACP        -0.8970
      3 O2G        -2.5178    0.2706   -5.5909 O.co2     1 ACP        -0.8970
      4 O3G        -1.7202    2.0610   -3.9372 O.3       1 ACP        -0.7959
      5 PB          1.2848    2.5738   -5.4636 P.3       1 ACP         1.5194
      6 O1B         0.7385    3.7340   -4.6649 O.co2     1 ACP        -0.8958
      7 O2B         2.1625    2.7754   -6.6775 O.co2     1 ACP        -0.8958
      8 C3B        -0.1533    1.5407   -5.9913 C.3       1 ACP        -0.5612
      9 PA          3.2331    1.6548   -3.4224 P.3       1 ACP         1.6019
     10 O1A         2.8120    2.5879   -2.3081 O.co2     1 ACP        -0.9040
     11 O2A         4.4890    1.9264   -4.2220 O.co2     1 ACP        -0.9040
     12 O3A         1.9831    1.4943   -4.4610 O.3       1 ACP        -0.8156
     13 O5'         3.2883    0.1336   -2.8242 O.3       1 ACP        -0.5465
     14 C5'         2.2816   -0.2918   -1.9206 C.3       1 ACP         0.2108
     15 C4'         2.7248    0.0226   -0.4980 C.3       1 ACP         0.0552
     16 O4'         2.4697    1.4219   -0.2462 O.3       1 ACP        -0.3428
     17 C3'         1.9404   -0.7419    0.5596 C.3       1 ACP         0.0750
     18 O3'         2.7418   -0.8086    1.7389 O.3       1 ACP        -0.6066
     19 C2'         0.7477    0.1630    0.7858 C.3       1 ACP         0.1185
     20 O2'         0.1373   -0.0577    2.0407 O.3       1 ACP        -0.5858
     21 C1'         1.3733    1.5427    0.6747 C.3       1 ACP         0.3826
     22 N9          0.4520    2.5240    0.1767 N.pl3     1 ACP        -0.5729
     23 C8         -0.2172    2.5216   -0.9668 C.ar      1 ACP         0.3288
     24 N7         -1.0011    3.5855   -1.1321 N.pl3     1 ACP        -0.5338
     25 C5         -0.8184    4.3200   -0.0123 C.ar      1 ACP        -0.2581
     26 C6         -1.3349    5.5079    0.4144 C.ar      1 ACP         0.7413
     27 N6         -2.2567    6.1930   -0.4036 N.pl3     1 ACP        -0.9512
     28 N1         -0.9716    6.0291    1.6069 N.ar      1 ACP        -0.7699
     29 C2         -0.0765    5.3009    2.3312 C.ar      1 ACP         0.6898
     30 N3          0.4933    4.1191    2.0023 N.ar      1 ACP        -0.6800
     31 C4          0.0865    3.6675    0.8123 C.ar      1 ACP         0.6129
     32 HOG3       -2.2581    1.9430   -3.1254 H         1 ACP         0.4199
     33 H3B1       -0.7703    2.1740   -6.6384 H         1 ACP         0.0672
     34 H3B2        0.2593    0.7396   -6.6144 H         1 ACP         0.0672
     35 H5'1        1.3500    0.2325   -2.1560 H         1 ACP         0.0277
     36 H5'2        2.1267   -1.3683   -2.0444 H         1 ACP         0.0277
     37 H4'         3.8050   -0.1388   -0.4008 H         1 ACP         0.1249
     38 H3'         1.6784   -1.7629    0.2714 H         1 ACP         0.0564
     39 HO3'        2.2232   -1.2979    2.3953 H         1 ACP         0.4511
     40 H2'        -0.0011    0.0027    0.0003 H         1 ACP         0.0716
     41 HO2'       -0.6141    0.5574    2.1082 H         1 ACP         0.4454
     42 H1'         1.7826    1.9024    1.6451 H         1 ACP         0.1310
     43 H8         -0.1423    1.7373   -1.6999 H         1 ACP         0.3565
     44 HN61       -2.4811    5.8206   -1.3042 H         1 ACP         0.4414
     45 HN62       -2.5986    7.0863   -0.1113 H         1 ACP         0.4414
     46 H2          0.2128    5.7222    3.2871 H         1 ACP         0.0676
     47 H47        -1.5947    3.7835   -1.9255 H         1 ACP         0.5052
@<TRIPOS>BOND
     1    1    2 2
     2    1    3 1
     3    1    4 1
     4    1    8 1
     5    4   32 1
     6    5    6 2
     7    5    7 1
     8    5    8 1
     9    5   12 1
    10    8   33 1
    11    8   34 1
    12    9   10 2
    13    9   11 1
    14    9   12 1
    15    9   13 1
    16   13   14 1
    17   14   15 1
    18   14   35 1
    19   14   36 1
    20   15   16 1
    21   15   17 1
    22   15   37 1
    23   16   21 1
    24   17   18 1
    25   17   19 1
    26   17   38 1
    27   18   39 1
    28   19   20 1
    29   19   21 1
    30   19   40 1
    31   20   41 1
    32   21   22 1
    33   21   42 1
    34   22   23 ar
    35   22   31 ar
    36   23   24 ar
    37   23   43 1
    38   24   25 ar
    39   24   47 1
    40   25   26 ar
    41   25   31 ar
    42   26   27 1
    43   26   28 ar
    44   27   44 1
    45   27   45 1
    46   28   29 ar
    47   29   30 ar
    48   29   46 1
    49   30   31 ar
@<TRIPOS>SUBSTRUCTURE
     1 ACP         1 GROUP 0 A     ****
@<TRIPOS>MOLECULE
[[5-(6-amino-7,8-dihydropurin-8-ylium-9-yl)-3,4-dihydroxy-tetrahydrofuran-2-yl]methoxy-oxido-phosphoryl]oxy-[[hydroxy(oxido)phosphoryl]methyl]phosphinate
   47    49     1     0     0
SMALL
USER_CHARGES

@<TRIPOS>ATOM
      1 PG          3.9763    4.6470   -0.6705 P.3       1 ACP         1.3755
      2 O1G         4.2365    3.1747   -0.4529 O.co2     1 ACP        -0.8970
      3 O2G         3.8725    5.6231    0.4787 O.co2     1 ACP        -0.8970
      4 O3G         5.0260    5.2250   -1.7768 O.3       1 ACP        -0.7959
      5 PB          2.2306    4.0752   -3.3539 P.3       1 ACP         1.5194
      6 O1B         3.2837    4.6999   -4.2390 O.co2     1 ACP        -0.8958
      7 O2B         0.7592    4.1259   -3.6956 O.co2     1 ACP        -0.8958
      8 C3B         2.4276    4.7997   -1.6656 C.3       1 ACP        -0.5612
      9 PA          2.9215    1.2532   -3.9587 P.3       1 ACP         1.6019
     10 O1A         4.1641    1.5218   -4.7794 O.co2     1 ACP        -0.9040
     11 O2A         1.6190    0.8783   -4.6320 O.co2     1 ACP        -0.9040
     12 O3A         2.6524    2.5422   -2.9929 O.3       1 ACP        -0.8156
     13 O5'         3.2883    0.1336   -2.8242 O.3       1 ACP        -0.5465
     14 C5'         2.2816   -0.2918   -1.9206 C.3       1 ACP         0.2108
     15 C4'         2.7248    0.0226   -0.4980 C.3       1 ACP         0.0552
     16 O4'         2.4697    1.4219   -0.2462 O.3       1 ACP        -0.3428
     17 C3'         1.9404   -0.7419    0.5596 C.3       1 ACP         0.0750
     18 O3'         2.7418   -0.8086    1.7389 O.3       1 ACP        -0.6066
     19 C2'         0.7477    0.1630    0.7858 C.3       1 ACP         0.1185
     20 O2'         0.1373   -0.0577    2.0407 O.3       1 ACP        -0.5858
     21 C1'         1.3733    1.5427    0.6747 C.3       1 ACP         0.3826
     22 N9          0.4520    2.5240    0.1767 N.pl3     1 ACP        -0.5729
     23 C8         -0.2172    2.5216   -0.9668 C.ar      1 ACP         0.3288
     24 N7         -1.0011    3.5855   -1.1321 N.pl3     1 ACP        -0.5338
     25 C5         -0.8184    4.3200   -0.0123 C.ar      1 ACP        -0.2581
     26 C6         -1.3349    5.5079    0.4144 C.ar      1 ACP         0.7413
     27 N6         -2.2567    6.1930   -0.4036 N.pl3     1 ACP        -0.9512
     28 N1         -0.9716    6.0291    1.6069 N.ar      1 ACP        -0.7699
     29 C2         -0.0765    5.3009    2.3312 C.ar      1 ACP         0.6898
     30 N3          0.4933    4.1191    2.0023 N.ar      1 ACP        -0.6800
     31 C4          0.0865    3.6675    0.8123 C.ar      1 ACP         0.6129
     32 HOG3        5.9864    5.1651   -1.5865 H         1 ACP         0.4199
     33 H3B1        2.2349    5.8738   -1.7638 H         1 ACP         0.0672
     34 H3B2        1.6210    4.3766   -1.0565 H         1 ACP         0.0672
     35 H5'1        1.3500    0.2325   -2.1560 H         1 ACP         0.0277
     36 H5'2        2.1267   -1.3683   -2.0444 H         1 ACP         0.0277
     37 H4'         3.8050   -0.1388   -0.4008 H         1 ACP         0.1249
     38 H3'         1.6784   -1.7629    0.2714 H         1 ACP         0.0564
     39 HO3'        3.5554   -1.2733    1.4914 H         1 ACP         0.4511
     40 H2'        -0.0011    0.0027    0.0003 H         1 ACP         0.0716
     41 HO2'       -0.1563   -0.9855    2.0596 H         1 ACP         0.4454
     42 H1'         1.7826    1.9024    1.6451 H         1 ACP         0.1310
     43 H8         -0.1423    1.7373   -1.6999 H         1 ACP         0.3565
     44 HN61       -2.4811    5.8206   -1.3042 H         1 ACP         0.4414
     45 HN62       -2.5986    7.0863   -0.1113 H         1 ACP         0.4414
     46 H2          0.2128    5.7222    3.2871 H         1 ACP         0.0676
     47 H47        -1.5947    3.7835   -1.9255 H         1 ACP         0.5052
@<TRIPOS>BOND
     1    1    2 2
     2    1    3 1
     3    1    4 1
     4    1    8 1
     5    4   32 1
     6    5    6 2
     7    5    7 1
     8    5    8 1
     9    5   12 1
    10    8   33 1
    11    8   34 1
    12    9   10 2
    13    9   11 1
    14    9   12 1
    15    9   13 1
    16   13   14 1
    17   14   15 1
    18   14   35 1
    19   14   36 1
    20   15   16 1
    21   15   17 1
    22   15   37 1
    23   16   21 1
    24   17   18 1
    25   17   19 1
    26   17   38 1
    27   18   39 1
    28   19   20 1
    29   19   21 1
    30   19   40 1
    31   20   41 1
    32   21   22 1
    33   21   42 1
    34   22   23 ar
    35   22   31 ar
    36   23   24 ar
    37   23   43 1
    38   24   25 ar
    39   24   47 1
    40   25   26 ar
    41   25   31 ar
    42   26   27 1
    43   26   28 ar
    44   27   44 1
    45   27   45 1
    46   28   29 ar
    47   29   30 ar
    48   29   46 1
    49   30   31 ar
@<TRIPOS>SUBSTRUCTURE
     1 ACP         1 GROUP 0 A     ****
@<TRIPOS>MOLECULE
[[5-(6-amino-7,8-dihydropurin-8-ylium-9-yl)-3,4-dihydroxy-tetrahydrofuran-2-yl]methoxy-oxido-phosphoryl]oxy-[[hydroxy(oxido)phosphoryl]methyl]phosphinate
   47    49     1     0     0
SMALL
USER_CHARGES

@<TRIPOS>ATOM
      1 PG          1.4879   -4.9486    6.2216 P.3       1 ACP         1.3755
      2 O1G         1.3694   -4.2667    4.8785 O.co2     1 ACP        -0.8970
      3 O2G         2.7397   -4.8540    7.0631 O.co2     1 ACP        -0.8970
      4 O3G         0.1920   -4.5712    7.1370 O.3       1 ACP        -0.7959
      5 PB         -0.4821   -7.3707    5.3117 P.3       1 ACP         1.5194
      6 O1B        -1.5672   -6.9189    6.2611 O.co2     1 ACP        -0.8958
      7 O2B        -0.2825   -8.8250    4.9518 O.co2     1 ACP        -0.8958
      8 C3B         1.1255   -6.7426    5.9713 C.3       1 ACP        -0.5612
      9 PA         -1.7212   -6.2756    2.8475 P.3       1 ACP         1.6019
     10 O1A        -2.8677   -5.5415    3.5081 O.co2     1 ACP        -0.9040
     11 O2A        -1.9532   -7.5972    2.1476 O.co2     1 ACP        -0.9040
     12 O3A        -0.5331   -6.4756    3.9500 O.3       1 ACP        -0.8156
     13 O5'        -0.9728   -5.2427    1.8237 O.3       1 ACP        -0.5465
     14 C5'        -0.7840   -3.8935    2.2172 C.3       1 ACP         0.2108
     15 C4'        -0.0724   -3.1466    1.1027 C.3       1 ACP         0.0552
     16 O4'        -0.8674   -3.1929   -0.0945 O.3       1 ACP        -0.3428
     17 C3'         0.1338   -1.6715    1.4027 C.3       1 ACP         0.0750
     18 O3'         1.2893   -1.4445    2.1808 O.3       1 ACP        -0.6066
     19 C2'         0.2158   -1.0724    0.0128 C.3       1 ACP         0.1185
     20 O2'         1.5141   -1.2448   -0.5513 O.3       1 ACP        -0.5858
     21 C1'        -0.7897   -1.9176   -0.7583 C.3       1 ACP         0.3826
     22 N9         -2.1040   -1.3333   -0.7704 N.pl3     1 ACP        -0.5729
     23 C8         -2.8739   -1.0133    0.2593 C.ar      1 ACP         0.3288
     24 N7         -4.0439   -0.4818   -0.0902 N.pl3     1 ACP        -0.5338
     25 C5         -4.0184   -0.4615   -1.4414 C.ar      1 ACP        -0.2581
     26 C6         -4.9120   -0.0399   -2.3814 C.ar      1 ACP         0.7413
     27 N6         -6.1459    0.5018   -1.9665 N.pl3     1 ACP        -0.9512
     28 N1         -4.6250   -0.1374   -3.6981 N.ar      1 ACP        -0.7699
     29 C2         -3.4114   -0.6729   -4.0088 C.ar      1 ACP         0.6898
     30 N3         -2.4579   -1.1190   -3.1595 N.ar      1 ACP        -0.6800
     31 C4         -2.8124   -0.9904   -1.8776 C.ar      1 ACP         0.6129
     32 HOG3        0.0272   -3.6275    7.3481 H         1 ACP         0.4199
     33 H3B1        1.2690   -7.2198    6.9471 H         1 ACP         0.0672
     34 H3B2        1.9015   -7.1283    5.3009 H         1 ACP         0.0672
     35 H5'1       -1.7614   -3.4427    2.4167 H         1 ACP         0.0277
     36 H5'2       -0.1870   -3.8723    3.1344 H         1 ACP         0.0277
     37 H4'         0.8886   -3.6447    0.8779 H         1 ACP         0.1249
     38 H3'        -0.7373   -1.2359    1.9870 H         1 ACP         0.0564
     39 HO3'        1.3408   -0.4870    2.3219 H         1 ACP         0.4511
     40 H2'        -0.0384   -0.0310    0.0096 H         1 ACP         0.0716
     41 HO2'        2.1463   -0.7958    0.0370 H         1 ACP         0.4454
     42 H1'        -0.4769   -2.1002   -1.8093 H         1 ACP         0.1310
     43 H8         -2.5891   -1.1636    1.2862 H         1 ACP         0.3565
     44 HN61       -6.3657    0.5248   -0.9911 H         1 ACP         0.4414
     45 HN62       -6.8193    0.7669   -2.6568 H         1 ACP         0.4414
     46 H2         -3.1848   -0.7497   -5.0660 H         1 ACP         0.0676
     47 H47        -4.7768   -0.1684    0.5309 H         1 ACP         0.5052
@<TRIPOS>BOND
     1    1    2 2
     2    1    3 1
     3    1    4 1
     4    1    8 1
     5    4   32 1
     6    5    6 2
     7    5    7 1
     8    5    8 1
     9    5   12 1
    10    8   33 1
    11    8   34 1
    12    9   10 2
    13    9   11 1
    14    9   12 1
    15    9   13 1
    16   13   14 1
    17   14   15 1
    18   14   35 1
    19   14   36 1
    20   15   16 1
    21   15   17 1
    22   15   37 1
    23   16   21 1
    24   17   18 1
    25   17   19 1
    26   17   38 1
    27   18   39 1
    28   19   20 1
    29   19   21 1
    30   19   40 1
    31   20   41 1
    32   21   22 1
    33   21   42 1
    34   22   23 ar
    35   22   31 ar
    36   23   24 ar
    37   23   43 1
    38   24   25 ar
    39   24   47 1
    40   25   26 ar
    41   25   31 ar
    42   26   27 1
    43   26   28 ar
    44   27   44 1
    45   27   45 1
    46   28   29 ar
    47   29   30 ar
    48   29   46 1
    49   30   31 ar
@<TRIPOS>SUBSTRUCTURE
     1 ACP         1 GROUP 0 A     ****
@<TRIPOS>MOLECULE
[[5-(6-amino-7,8-dihydropurin-8-ylium-9-yl)-3,4-dihydroxy-tetrahydrofuran-2-yl]methoxy-oxido-phosphoryl]oxy-[[hydroxy(oxido)phosphoryl]methyl]phosphinate
   47    49     1     0     0
SMALL
USER_CHARGES

@<TRIPOS>ATOM
      1 PG         -4.0375   -6.1053   -1.5132 P.3       1 ACP         1.3755
      2 O1G        -3.4525   -6.8116   -2.7140 O.co2     1 ACP        -0.8970
      3 O2G        -3.6723   -4.6815   -1.1617 O.co2     1 ACP        -0.8970
      4 O3G        -5.6612   -6.2571   -1.5332 O.3       1 ACP        -0.7959
      5 PB         -4.2180   -6.6856    1.6815 P.3       1 ACP         1.5194
      6 O1B        -3.7512   -7.7823    2.6099 O.co2     1 ACP        -0.8958
      7 O2B        -5.6659   -6.2592    1.6043 O.co2     1 ACP        -0.8958
      8 C3B        -3.6895   -7.1470   -0.0279 C.3       1 ACP        -0.5612
      9 PA         -3.2840   -4.1951    2.9975 P.3       1 ACP         1.6019
     10 O1A        -2.8829   -4.8061    4.3225 O.co2     1 ACP        -0.9040
     11 O2A        -4.5747   -3.4154    2.8673 O.co2     1 ACP        -0.9040
     12 O3A        -3.2725   -5.3698    1.8631 O.3       1 ACP        -0.8156
     13 O5'        -2.0403   -3.2809    2.4568 O.3       1 ACP        -0.5465
     14 C5'        -0.7840   -3.8935    2.2172 C.3       1 ACP         0.2108
     15 C4'        -0.0724   -3.1466    1.1027 C.3       1 ACP         0.0552
     16 O4'        -0.8674   -3.1929   -0.0945 O.3       1 ACP        -0.3428
     17 C3'         0.1338   -1.6715    1.4027 C.3       1 ACP         0.0750
     18 O3'         1.2893   -1.4445    2.1808 O.3       1 ACP        -0.6066
     19 C2'         0.2158   -1.0724    0.0128 C.3       1 ACP         0.1185
     20 O2'         1.5141   -1.2448   -0.5513 O.3       1 ACP        -0.5858
     21 C1'        -0.7897   -1.9176   -0.7583 C.3       1 ACP         0.3826
     22 N9         -2.1040   -1.3333   -0.7704 N.pl3     1 ACP        -0.5729
     23 C8         -3.2304   -1.8262   -0.2767 C.ar      1 ACP         0.3288
     24 N7         -4.2847   -1.0309   -0.4481 N.pl3     1 ACP        -0.5338
     25 C5         -3.7951    0.0479   -1.0985 C.ar      1 ACP        -0.2581
     26 C6         -4.3691    1.1983   -1.5536 C.ar      1 ACP         0.7413
     27 N6         -5.7501    1.4047   -1.3573 N.pl3     1 ACP        -0.9512
     28 N1         -3.6289    2.1345   -2.1869 N.ar      1 ACP        -0.7699
     29 C2         -2.3041    1.8525   -2.3333 C.ar      1 ACP         0.6898
     30 N3         -1.6387    0.7492   -1.9218 N.ar      1 ACP        -0.6800
     31 C4         -2.4348   -0.1293   -1.3053 C.ar      1 ACP         0.6129
     32 HOG3       -6.1551   -5.8983   -2.3010 H         1 ACP         0.4199
     33 H3B1       -2.6016   -7.2726    0.0062 H         1 ACP         0.0672
     34 H3B2       -4.1268   -8.1317   -0.2266 H         1 ACP         0.0672
     35 H5'1       -0.1929   -3.8610    3.1379 H         1 ACP         0.0277
     36 H5'2       -0.9476   -4.9382    1.9344 H         1 ACP         0.0277
     37 H4'         0.8886   -3.6447    0.8779 H         1 ACP         0.1249
     38 H3'        -0.7373   -1.2359    1.9870 H         1 ACP         0.0564
     39 HO3'        1.1626   -1.9325    3.0084 H         1 ACP         0.4511
     40 H2'        -0.0384   -0.0310    0.0096 H         1 ACP         0.0716
     41 HO2'        1.4998   -0.8412   -1.4369 H         1 ACP         0.4454
     42 H1'        -0.4769   -2.1002   -1.8093 H         1 ACP         0.1310
     43 H8         -3.2974   -2.7789    0.2194 H         1 ACP         0.3565
     44 HN61       -6.1609    2.2686   -1.6490 H         1 ACP         0.4414
     45 HN62       -6.2772    0.7257   -0.8460 H         1 ACP         0.4414
     46 H2         -1.7135    2.6057   -2.8421 H         1 ACP         0.0676
     47 H47        -5.2337   -1.2102   -0.1507 H         1 ACP         0.5052
@<TRIPOS>BOND
     1    1    2 2
     2    1    3 1
     3    1    4 1
     4    1    8 1
     5    4   32 1
     6    5    6 2
     7    5    7 1
     8    5    8 1
     9    5   12 1
    10    8   33 1
    11    8   34 1
    12    9   10 2
    13    9   11 1
    14    9   12 1
    15    9   13 1
    16   13   14 1
    17   14   15 1
    18   14   35 1
    19   14   36 1
    20   15   16 1
    21   15   17 1
    22   15   37 1
    23   16   21 1
    24   17   18 1
    25   17   19 1
    26   17   38 1
    27   18   39 1
    28   19   20 1
    29   19   21 1
    30   19   40 1
    31   20   41 1
    32   21   22 1
    33   21   42 1
    34   22   23 ar
    35   22   31 ar
    36   23   24 ar
    37   23   43 1
    38   24   25 ar
    39   24   47 1
    40   25   26 ar
    41   25   31 ar
    42   26   27 1
    43   26   28 ar
    44   27   44 1
    45   27   45 1
    46   28   29 ar
    47   29   30 ar
    48   29   46 1
    49   30   31 ar
@<TRIPOS>SUBSTRUCTURE
     1 ACP         1 GROUP 0 A     ****
@<TRIPOS>MOLECULE
[[5-(6-amino-7,8-dihydropurin-8-ylium-9-yl)-3,4-dihydroxy-tetrahydrofuran-2-yl]methoxy-oxido-phosphoryl]oxy-[[hydroxy(oxido)phosphoryl]methyl]phosphinate
   47    49     1     0     0
SMALL
USER_CHARGES

@<TRIPOS>ATOM
      1 PG          2.6705    1.0723   -6.7307 P.3       1 ACP         1.3755
      2 O1G         3.7883    1.6324   -7.5790 O.co2     1 ACP        -0.8970
      3 O2G         2.5893    1.3212   -5.2422 O.co2     1 ACP        -0.8970
      4 O3G         1.2360    1.4332   -7.4177 O.3       1 ACP        -0.7959
      5 PB          1.4292   -1.8769   -6.1501 P.3       1 ACP         1.5194
      6 O1B         1.7224   -3.2845   -6.6140 O.co2     1 ACP        -0.8958
      7 O2B         0.0612   -1.2507   -6.2951 O.co2     1 ACP        -0.8958
      8 C3B         2.6372   -0.7568   -6.9869 C.3       1 ACP        -0.5612
      9 PA          1.5537   -2.4539   -3.2418 P.3       1 ACP         1.6019
     10 O1A         2.0300   -3.8868   -3.3414 O.co2     1 ACP        -0.9040
     11 O2A         0.1072   -2.1427   -2.9238 O.co2     1 ACP        -0.9040
     12 O3A         1.9587   -1.6787   -4.6209 O.3       1 ACP        -0.8156
     13 O5'         2.5237   -1.6631   -2.1889 O.3       1 ACP        -0.5465
     14 C5'         2.2816   -0.2918   -1.9206 C.3       1 ACP         0.2108
     15 C4'         2.7248    0.0226   -0.4980 C.3       1 ACP         0.0552
     16 O4'         2.4697    1.4219   -0.2462 O.3       1 ACP        -0.3428
     17 C3'         1.9404   -0.7419    0.5596 C.3       1 ACP         0.0750
     18 O3'         2.7418   -0.8086    1.7389 O.3       1 ACP        -0.6066
     19 C2'         0.7477    0.1630    0.7858 C.3       1 ACP         0.1185
     20 O2'         0.1373   -0.0577    2.0407 O.3       1 ACP        -0.5858
     21 C1'         1.3733    1.5427    0.6747 C.3       1 ACP         0.3826
     22 N9          0.4520    2.5240    0.1767 N.pl3     1 ACP        -0.5729
     23 C8         -0.3477    3.3274    0.8626 C.ar      1 ACP         0.3288
     24 N7         -1.0836    4.1323    0.0983 N.pl3     1 ACP        -0.5338
     25 C5         -0.7273    3.8194   -1.1674 C.ar      1 ACP        -0.2581
     26 C6         -1.1208    4.2877   -2.3863 C.ar      1 ACP         0.7413
     27 N6         -2.0932    5.3066   -2.4528 N.pl3     1 ACP        -0.9512
     28 N1         -0.5892    3.7853   -3.5223 N.ar      1 ACP        -0.7699
     29 C2          0.3427    2.8040   -3.3648 C.ar      1 ACP         0.6898
     30 N3          0.8012    2.2709   -2.2093 N.ar      1 ACP        -0.6800
     31 C4          0.2307    2.8167   -1.1312 C.ar      1 ACP         0.6129
     32 HOG3        1.0039    2.3774   -7.5475 H         1 ACP         0.4199
     33 H3B1        3.6355   -1.1190   -6.7171 H         1 ACP         0.0672
     34 H3B2        2.5094   -0.9201   -8.0628 H         1 ACP         0.0672
     35 H5'1        2.8429    0.3140   -2.6391 H         1 ACP         0.0277
     36 H5'2        1.2125   -0.0906   -2.0420 H         1 ACP         0.0277
     37 H4'         3.8050   -0.1388   -0.4008 H         1 ACP         0.1249
     38 H3'         1.6784   -1.7629    0.2714 H         1 ACP         0.0564
     39 HO3'        2.2232   -1.2979    2.3953 H         1 ACP         0.4511
     40 H2'        -0.0011    0.0027    0.0003 H         1 ACP         0.0716
     41 HO2'       -0.6141    0.5574    2.1082 H         1 ACP         0.4454
     42 H1'         1.7826    1.9024    1.6451 H         1 ACP         0.1310
     43 H8         -0.4040    3.3373    1.9373 H         1 ACP         0.3565
     44 HN61       -2.5133    5.6366   -1.6073 H         1 ACP         0.4414
     45 HN62       -2.4153    5.6161   -3.3477 H         1 ACP         0.4414
     46 H2          0.7668    2.4032   -4.2782 H         1 ACP         0.0676
     47 H47        -1.7549    4.8194    0.4122 H         1 ACP         0.5052
@<TRIPOS>BOND
     1    1    2 2
     2    1    3 1
     3    1    4 1
     4    1    8 1
     5    4   32 1
     6    5    6 2
     7    5    7 1
     8    5    8 1
     9    5   12 1
    10    8   33 1
    11    8   34 1
    12    9   10 2
    13    9   11 1
    14    9   12 1
    15    9   13 1
    16   13   14 1
    17   14   15 1
    18   14   35 1
    19   14   36 1
    20   15   16 1
    21   15   17 1
    22   15   37 1
    23   16   21 1
    24   17   18 1
    25   17   19 1
    26   17   38 1
    27   18   39 1
    28   19   20 1
    29   19   21 1
    30   19   40 1
    31   20   41 1
    32   21   22 1
    33   21   42 1
    34   22   23 ar
    35   22   31 ar
    36   23   24 ar
    37   23   43 1
    38   24   25 ar
    39   24   47 1
    40   25   26 ar
    41   25   31 ar
    42   26   27 1
    43   26   28 ar
    44   27   44 1
    45   27   45 1
    46   28   29 ar
    47   29   30 ar
    48   29   46 1
    49   30   31 ar
@<TRIPOS>SUBSTRUCTURE
     1 ACP         1 GROUP 0 A     ****
@<TRIPOS>MOLECULE
[[5-(6-amino-7,8-dihydropurin-8-ylium-9-yl)-3,4-dihydroxy-tetrahydrofuran-2-yl]methoxy-oxido-phosphoryl]oxy-[[hydroxy(oxido)phosphoryl]methyl]phosphinate
   47    49     1     0     0
SMALL
USER_CHARGES

@<TRIPOS>ATOM
      1 PG          1.4076   -3.7216   -5.0483 P.3       1 ACP         1.3755
      2 O1G         1.8307   -5.1532   -5.2815 O.co2     1 ACP        -0.8970
      3 O2G        -0.0446   -3.3244   -4.9155 O.co2     1 ACP        -0.8970
      4 O3G         2.2531   -3.1035   -3.7982 O.3       1 ACP        -0.7959
      5 PB          1.8928   -0.8693   -6.5330 P.3       1 ACP         1.5194
      6 O1B         0.4081   -0.6220   -6.6641 O.co2     1 ACP        -0.8958
      7 O2B         2.8867   -0.3554   -7.5491 O.co2     1 ACP        -0.8958
      8 C3B         2.1388   -2.6957   -6.3993 C.3       1 ACP        -0.5612
      9 PA          2.3321    0.9617   -4.2393 P.3       1 ACP         1.6019
     10 O1A         0.8820    1.3039   -3.9746 O.co2     1 ACP        -0.9040
     11 O2A         3.2385    1.9433   -4.9501 O.co2     1 ACP        -0.9040
     12 O3A         2.3890   -0.4639   -5.0338 O.3       1 ACP        -0.8156
     13 O5'         3.0198    0.5138   -2.8245 O.3       1 ACP        -0.5465
     14 C5'         2.2816   -0.2918   -1.9206 C.3       1 ACP         0.2108
     15 C4'         2.7248    0.0226   -0.4980 C.3       1 ACP         0.0552
     16 O4'         2.4697    1.4219   -0.2462 O.3       1 ACP        -0.3428
     17 C3'         1.9404   -0.7419    0.5596 C.3       1 ACP         0.0750
     18 O3'         2.7418   -0.8086    1.7389 O.3       1 ACP        -0.6066
     19 C2'         0.7477    0.1630    0.7858 C.3       1 ACP         0.1185
     20 O2'         0.1373   -0.0577    2.0407 O.3       1 ACP        -0.5858
     21 C1'         1.3733    1.5427    0.6747 C.3       1 ACP         0.3826
     22 N9          0.4520    2.5240    0.1767 N.pl3     1 ACP        -0.5729
     23 C8         -0.5899    2.3466   -0.6224 C.ar      1 ACP         0.3288
     24 N7         -1.2514    3.4689   -0.8989 N.pl3     1 ACP        -0.5338
     25 C5         -0.5826    4.4323   -0.2272 C.ar      1 ACP        -0.2581
     26 C6         -0.7636    5.7789   -0.1086 C.ar      1 ACP         0.7413
     27 N6         -1.8382    6.3927   -0.7843 N.pl3     1 ACP        -0.9512
     28 N1          0.0741    6.5233    0.6461 N.ar      1 ACP        -0.7699
     29 C2          1.0845    5.8486    1.2626 C.ar      1 ACP         0.6898
     30 N3          1.3516    4.5236    1.2116 N.ar      1 ACP        -0.6800
     31 C4          0.4827    3.8546    0.4481 C.ar      1 ACP         0.6129
     32 HOG3        2.1736   -3.5350   -2.9209 H         1 ACP         0.4199
     33 H3B1        1.7759   -3.1279   -7.3385 H         1 ACP         0.0672
     34 H3B2        3.2221   -2.8554   -6.3624 H         1 ACP         0.0672
     35 H5'1        1.2153   -0.0781   -2.0454 H         1 ACP         0.0277
     36 H5'2        2.4645   -1.3454   -2.1547 H         1 ACP         0.0277
     37 H4'         3.8050   -0.1388   -0.4008 H         1 ACP         0.1249
     38 H3'         1.6784   -1.7629    0.2714 H         1 ACP         0.0564
     39 HO3'        3.5554   -1.2733    1.4914 H         1 ACP         0.4511
     40 H2'        -0.0011    0.0027    0.0003 H         1 ACP         0.0716
     41 HO2'       -0.6141    0.5574    2.1082 H         1 ACP         0.4454
     42 H1'         1.7826    1.9024    1.6451 H         1 ACP         0.1310
     43 H8         -0.8833    1.3888   -1.0158 H         1 ACP         0.3565
     44 HN61       -2.4225    5.8385   -1.3773 H         1 ACP         0.4414
     45 HN62       -1.9421    7.3862   -0.7348 H         1 ACP         0.4414
     46 H2          1.7546    6.4491    1.8670 H         1 ACP         0.0676
     47 H47        -2.0705    3.5612   -1.4834 H         1 ACP         0.5052
@<TRIPOS>BOND
     1    1    2 2
     2    1    3 1
     3    1    4 1
     4    1    8 1
     5    4   32 1
     6    5    6 2
     7    5    7 1
     8    5    8 1
     9    5   12 1
    10    8   33 1
    11    8   34 1
    12    9   10 2
    13    9   11 1
    14    9   12 1
    15    9   13 1
    16   13   14 1
    17   14   15 1
    18   14   35 1
    19   14   36 1
    20   15   16 1
    21   15   17 1
    22   15   37 1
    23   16   21 1
    24   17   18 1
    25   17   19 1
    26   17   38 1
    27   18   39 1
    28   19   20 1
    29   19   21 1
    30   19   40 1
    31   20   41 1
    32   21   22 1
    33   21   42 1
    34   22   23 ar
    35   22   31 ar
    36   23   24 ar
    37   23   43 1
    38   24   25 ar
    39   24   47 1
    40   25   26 ar
    41   25   31 ar
    42   26   27 1
    43   26   28 ar
    44   27   44 1
    45   27   45 1
    46   28   29 ar
    47   29   30 ar
    48   29   46 1
    49   30   31 ar
@<TRIPOS>SUBSTRUCTURE
     1 ACP         1 GROUP 0 A     ****
@<TRIPOS>MOLECULE
[[5-(6-amino-7,8-dihydropurin-8-ylium-9-yl)-3,4-dihydroxy-tetrahydrofuran-2-yl]methoxy-oxido-phosphoryl]oxy-[[hydroxy(oxido)phosphoryl]methyl]phosphinate
   47    49     1     0     0
SMALL
USER_CHARGES

@<TRIPOS>ATOM
      1 PG          7.1801   -1.2368   -5.9771 P.3       1 ACP         1.3755
      2 O1G         8.1020   -0.2226   -6.6132 O.co2     1 ACP        -0.8970
      3 O2G         5.8714   -1.6438   -6.6142 O.co2     1 ACP        -0.8970
      4 O3G         8.0303   -2.5733   -5.5888 O.3       1 ACP        -0.7959
      5 PB          5.7071   -1.5745   -3.0977 P.3       1 ACP         1.5194
      6 O1B         5.6486   -0.7819   -1.8128 O.co2     1 ACP        -0.8958
      7 O2B         6.1344   -3.0239   -3.1299 O.co2     1 ACP        -0.8958
      8 C3B         6.8027   -0.6529   -4.2657 C.3       1 ACP        -0.5612
      9 PA          2.8591   -2.1299   -3.7201 P.3       1 ACP         1.6019
     10 O1A         3.0727   -3.6280   -3.7234 O.co2     1 ACP        -0.9040
     11 O2A         1.8686   -1.4903   -4.6689 O.co2     1 ACP        -0.9040
     12 O3A         4.3077   -1.4018   -3.9162 O.3       1 ACP        -0.8156
     13 O5'         2.5237   -1.6631   -2.1889 O.3       1 ACP        -0.5465
     14 C5'         2.2816   -0.2918   -1.9206 C.3       1 ACP         0.2108
     15 C4'         2.7248    0.0226   -0.4980 C.3       1 ACP         0.0552
     16 O4'         2.4697    1.4219   -0.2462 O.3       1 ACP        -0.3428
     17 C3'         1.9404   -0.7419    0.5596 C.3       1 ACP         0.0750
     18 O3'         2.7418   -0.8086    1.7389 O.3       1 ACP        -0.6066
     19 C2'         0.7477    0.1630    0.7858 C.3       1 ACP         0.1185
     20 O2'         0.1373   -0.0577    2.0407 O.3       1 ACP        -0.5858
     21 C1'         1.3733    1.5427    0.6747 C.3       1 ACP         0.3826
     22 N9          0.4520    2.5240    0.1767 N.pl3     1 ACP        -0.5729
     23 C8         -0.5899    2.3466   -0.6224 C.ar      1 ACP         0.3288
     24 N7         -1.2514    3.4689   -0.8989 N.pl3     1 ACP        -0.5338
     25 C5         -0.5826    4.4323   -0.2272 C.ar      1 ACP        -0.2581
     26 C6         -0.7636    5.7789   -0.1086 C.ar      1 ACP         0.7413
     27 N6         -1.8382    6.3927   -0.7843 N.pl3     1 ACP        -0.9512
     28 N1          0.0741    6.5233    0.6461 N.ar      1 ACP        -0.7699
     29 C2          1.0845    5.8486    1.2626 C.ar      1 ACP         0.6898
     30 N3          1.3516    4.5236    1.2116 N.ar      1 ACP        -0.6800
     31 C4          0.4827    3.8546    0.4481 C.ar      1 ACP         0.6129
     32 HOG3        8.4857   -3.0630   -6.3065 H         1 ACP         0.4199
     33 H3B1        6.3689    0.3472   -4.3753 H         1 ACP         0.0672
     34 H3B2        7.7650   -0.5383   -3.7546 H         1 ACP         0.0672
     35 H5'1        2.8429    0.3140   -2.6391 H         1 ACP         0.0277
     36 H5'2        1.2125   -0.0906   -2.0420 H         1 ACP         0.0277
     37 H4'         3.8050   -0.1388   -0.4008 H         1 ACP         0.1249
     38 H3'         1.6784   -1.7629    0.2714 H         1 ACP         0.0564
     39 HO3'        2.2232   -1.2979    2.3953 H         1 ACP         0.4511
     40 H2'        -0.0011    0.0027    0.0003 H         1 ACP         0.0716
     41 HO2'       -0.6141    0.5574    2.1082 H         1 ACP         0.4454
     42 H1'         1.7826    1.9024    1.6451 H         1 ACP         0.1310
     43 H8         -0.8833    1.3888   -1.0158 H         1 ACP         0.3565
     44 HN61       -2.4225    5.8385   -1.3773 H         1 ACP         0.4414
     45 HN62       -1.9421    7.3862   -0.7348 H         1 ACP         0.4414
     46 H2          1.7546    6.4491    1.8670 H         1 ACP         0.0676
     47 H47        -2.0705    3.5612   -1.4834 H         1 ACP         0.5052
@<TRIPOS>BOND
     1    1    2 2
     2    1    3 1
     3    1    4 1
     4    1    8 1
     5    4   32 1
     6    5    6 2
     7    5    7 1
     8    5    8 1
     9    5   12 1
    10    8   33 1
    11    8   34 1
    12    9   10 2
    13    9   11 1
    14    9   12 1
    15    9   13 1
    16   13   14 1
    17   14   15 1
    18   14   35 1
    19   14   36 1
    20   15   16 1
    21   15   17 1
    22   15   37 1
    23   16   21 1
    24   17   18 1
    25   17   19 1
    26   17   38 1
    27   18   39 1
    28   19   20 1
    29   19   21 1
    30   19   40 1
    31   20   41 1
    32   21   22 1
    33   21   42 1
    34   22   23 ar
    35   22   31 ar
    36   23   24 ar
    37   23   43 1
    38   24   25 ar
    39   24   47 1
    40   25   26 ar
    41   25   31 ar
    42   26   27 1
    43   26   28 ar
    44   27   44 1
    45   27   45 1
    46   28   29 ar
    47   29   30 ar
    48   29   46 1
    49   30   31 ar
@<TRIPOS>SUBSTRUCTURE
     1 ACP         1 GROUP 0 A     ****
@<TRIPOS>MOLECULE
[[5-(6-amino-7,8-dihydropurin-8-ylium-9-yl)-3,4-dihydroxy-tetrahydrofuran-2-yl]methoxy-oxido-phosphoryl]oxy-[[hydroxy(oxido)phosphoryl]methyl]phosphinate
   47    49     1     0     0
SMALL
USER_CHARGES

@<TRIPOS>ATOM
      1 PG          3.5797    0.8185   -6.9561 P.3       1 ACP         1.3755
      2 O1G         4.2598    1.1841   -8.2548 O.co2     1 ACP        -0.8970
      3 O2G         4.1072    1.2767   -5.6160 O.co2     1 ACP        -0.8970
      4 O3G         1.9903    1.1691   -7.0594 O.3       1 ACP        -0.7959
      5 PB          2.6765   -1.9378   -5.4856 P.3       1 ACP         1.5194
      6 O1B         2.7560   -3.4119   -5.8073 O.co2     1 ACP        -0.8958
      7 O2B         1.3672   -1.2538   -5.1659 O.co2     1 ACP        -0.8958
      8 C3B         3.4442   -1.0228   -6.8954 C.3       1 ACP        -0.5612
      9 PA          3.9654   -2.1111   -2.8181 P.3       1 ACP         1.6019
     10 O1A         5.0498   -1.2970   -2.1465 O.co2     1 ACP        -0.9040
     11 O2A         4.0486   -3.6217   -2.8585 O.co2     1 ACP        -0.9040
     12 O3A         3.7791   -1.5622   -4.3449 O.3       1 ACP        -0.8156
     13 O5'         2.5237   -1.6631   -2.1889 O.3       1 ACP        -0.5465
     14 C5'         2.2816   -0.2918   -1.9206 C.3       1 ACP         0.2108
     15 C4'         2.7248    0.0226   -0.4980 C.3       1 ACP         0.0552
     16 O4'         2.4697    1.4219   -0.2462 O.3       1 ACP        -0.3428
     17 C3'         1.9404   -0.7419    0.5596 C.3       1 ACP         0.0750
     18 O3'         2.7418   -0.8086    1.7389 O.3       1 ACP        -0.6066
     19 C2'         0.7477    0.1630    0.7858 C.3       1 ACP         0.1185
     20 O2'         0.1373   -0.0577    2.0407 O.3       1 ACP        -0.5858
     21 C1'         1.3733    1.5427    0.6747 C.3       1 ACP         0.3826
     22 N9          0.4520    2.5240    0.1767 N.pl3     1 ACP        -0.5729
     23 C8         -0.8602    2.5861    0.3496 C.ar      1 ACP         0.3288
     24 N7         -1.4308    3.6326   -0.2443 N.pl3     1 ACP        -0.5338
     25 C5         -0.4080    4.2856   -0.8394 C.ar      1 ACP        -0.2581
     26 C6         -0.3432    5.4196   -1.5943 C.ar      1 ACP         0.7413
     27 N6         -1.5276    6.1333   -1.8702 N.pl3     1 ACP        -0.9512
     28 N1          0.8395    5.8603   -2.0764 N.ar      1 ACP        -0.7699
     29 C2          1.9319    5.1095   -1.7617 C.ar      1 ACP         0.6898
     30 N3          1.9773    3.9761   -1.0249 N.ar      1 ACP        -0.6800
     31 C4          0.7724    3.6031   -0.5836 C.ar      1 ACP         0.6129
     32 HOG3        1.7263    2.0986   -7.2281 H         1 ACP         0.4199
     33 H3B1        4.4661   -1.4054   -6.9948 H         1 ACP         0.0672
     34 H3B2        2.8924   -1.3259   -7.7920 H         1 ACP         0.0672
     35 H5'1        2.8429    0.3140   -2.6391 H         1 ACP         0.0277
     36 H5'2        1.2125   -0.0906   -2.0420 H         1 ACP         0.0277
     37 H4'         3.8050   -0.1388   -0.4008 H         1 ACP         0.1249
     38 H3'         1.6784   -1.7629    0.2714 H         1 ACP         0.0564
     39 HO3'        3.5554   -1.2733    1.4914 H         1 ACP         0.4511
     40 H2'        -0.0011    0.0027    0.0003 H         1 ACP         0.0716
     41 HO2'        0.8082    0.1199    2.7232 H         1 ACP         0.4454
     42 H1'         1.7826    1.9024    1.6451 H         1 ACP         0.1310
     43 H8         -1.4217    1.8638    0.9164 H         1 ACP         0.3565
     44 HN61       -2.4023    5.7711   -1.5477 H         1 ACP         0.4414
     45 HN62       -1.4857    6.9379   -2.4627 H         1 ACP         0.4414
     46 H2          2.8789    5.4660   -2.1503 H         1 ACP         0.0676
     47 H47        -2.4129    3.8706   -0.2402 H         1 ACP         0.5052
@<TRIPOS>BOND
     1    1    2 2
     2    1    3 1
     3    1    4 1
     4    1    8 1
     5    4   32 1
     6    5    6 2
     7    5    7 1
     8    5    8 1
     9    5   12 1
    10    8   33 1
    11    8   34 1
    12    9   10 2
    13    9   11 1
    14    9   12 1
    15    9   13 1
    16   13   14 1
    17   14   15 1
    18   14   35 1
    19   14   36 1
    20   15   16 1
    21   15   17 1
    22   15   37 1
    23   16   21 1
    24   17   18 1
    25   17   19 1
    26   17   38 1
    27   18   39 1
    28   19   20 1
    29   19   21 1
    30   19   40 1
    31   20   41 1
    32   21   22 1
    33   21   42 1
    34   22   23 ar
    35   22   31 ar
    36   23   24 ar
    37   23   43 1
    38   24   25 ar
    39   24   47 1
    40   25   26 ar
    41   25   31 ar
    42   26   27 1
    43   26   28 ar
    44   27   44 1
    45   27   45 1
    46   28   29 ar
    47   29   30 ar
    48   29   46 1
    49   30   31 ar
@<TRIPOS>SUBSTRUCTURE
     1 ACP         1 GROUP 0 A     ****
@<TRIPOS>MOLECULE
[[5-(6-amino-7,8-dihydropurin-8-ylium-9-yl)-3,4-dihydroxy-tetrahydrofuran-2-yl]methoxy-oxido-phosphoryl]oxy-[[hydroxy(oxido)phosphoryl]methyl]phosphinate
   47    49     1     0     0
SMALL
USER_CHARGES

@<TRIPOS>ATOM
      1 PG          1.8810   -2.2098   -6.9194 P.3       1 ACP         1.3755
      2 O1G         2.5385   -1.4807   -8.0679 O.co2     1 ACP        -0.8970
      3 O2G         1.0648   -1.4886   -5.8717 O.co2     1 ACP        -0.8970
      4 O3G         1.0240   -3.4710   -7.4980 O.3       1 ACP        -0.7959
      5 PB          4.6694   -2.3695   -5.2537 P.3       1 ACP         1.5194
      6 O1B         5.4265   -1.6480   -6.3441 O.co2     1 ACP        -0.8958
      7 O2B         5.3234   -3.4092   -4.3731 O.co2     1 ACP        -0.8958
      8 C3B         3.1950   -3.1617   -6.0364 C.3       1 ACP        -0.5612
      9 PA          4.4357   -0.0473   -3.4208 P.3       1 ACP         1.6019
     10 O1A         5.0077    1.0009   -4.3502 O.co2     1 ACP        -0.9040
     11 O2A         5.2684   -0.6124   -2.2904 O.co2     1 ACP        -0.9040
     12 O3A         3.8786   -1.2888   -4.3238 O.3       1 ACP        -0.8156
     13 O5'         3.0198    0.5138   -2.8245 O.3       1 ACP        -0.5465
     14 C5'         2.2816   -0.2918   -1.9206 C.3       1 ACP         0.2108
     15 C4'         2.7248    0.0226   -0.4980 C.3       1 ACP         0.0552
     16 O4'         2.4697    1.4219   -0.2462 O.3       1 ACP        -0.3428
     17 C3'         1.9404   -0.7419    0.5596 C.3       1 ACP         0.0750
     18 O3'         2.7418   -0.8086    1.7389 O.3       1 ACP        -0.6066
     19 C2'         0.7477    0.1630    0.7858 C.3       1 ACP         0.1185
     20 O2'         0.1373   -0.0577    2.0407 O.3       1 ACP        -0.5858
     21 C1'         1.3733    1.5427    0.6747 C.3       1 ACP         0.3826
     22 N9          0.4520    2.5240    0.1767 N.pl3     1 ACP        -0.5729
     23 C8         -0.8252    2.3702   -0.1405 C.ar      1 ACP         0.3288
     24 N7         -1.4086    3.4861   -0.5739 N.pl3     1 ACP        -0.5338
     25 C5         -0.4324    4.4197   -0.5299 C.ar      1 ACP        -0.2581
     26 C6         -0.4006    5.7465   -0.8439 C.ar      1 ACP         0.7413
     27 N6         -1.5714    6.3708   -1.3211 N.pl3     1 ACP        -0.9512
     28 N1          0.7370    6.4615   -0.7020 N.ar      1 ACP        -0.7699
     29 C2          1.8196    5.7785   -0.2355 C.ar      1 ACP         0.6898
     30 N3          1.8948    4.4713    0.1036 N.ar      1 ACP        -0.6800
     31 C4          0.7337    3.8311   -0.0629 C.ar      1 ACP         0.6129
     32 HOG3        0.2964   -3.2912   -8.1308 H         1 ACP         0.4199
     33 H3B1        3.5801   -3.8893   -6.7595 H         1 ACP         0.0672
     34 H3B2        2.6933   -3.7243   -5.2413 H         1 ACP         0.0672
     35 H5'1        1.2153   -0.0781   -2.0454 H         1 ACP         0.0277
     36 H5'2        2.4645   -1.3454   -2.1547 H         1 ACP         0.0277
     37 H4'         3.8050   -0.1388   -0.4008 H         1 ACP         0.1249
     38 H3'         1.6784   -1.7629    0.2714 H         1 ACP         0.0564
     39 HO3'        2.2232   -1.2979    2.3953 H         1 ACP         0.4511
     40 H2'        -0.0011    0.0027    0.0003 H         1 ACP         0.0716
     41 HO2'       -0.6141    0.5574    2.1082 H         1 ACP         0.4454
     42 H1'         1.7826    1.9024    1.6451 H         1 ACP         0.1310
     43 H8         -1.3516    1.4351   -0.0582 H         1 ACP         0.3565
     44 HN61       -2.3936    5.8204   -1.4664 H         1 ACP         0.4414
     45 HN62       -1.5348    7.3319   -1.5955 H         1 ACP         0.4414
     46 H2          2.7305    6.3553   -0.1232 H         1 ACP         0.0676
     47 H47        -2.3700    3.5931   -0.8665 H         1 ACP         0.5052
@<TRIPOS>BOND
     1    1    2 2
     2    1    3 1
     3    1    4 1
     4    1    8 1
     5    4   32 1
     6    5    6 2
     7    5    7 1
     8    5    8 1
     9    5   12 1
    10    8   33 1
    11    8   34 1
    12    9   10 2
    13    9   11 1
    14    9   12 1
    15    9   13 1
    16   13   14 1
    17   14   15 1
    18   14   35 1
    19   14   36 1
    20   15   16 1
    21   15   17 1
    22   15   37 1
    23   16   21 1
    24   17   18 1
    25   17   19 1
    26   17   38 1
    27   18   39 1
    28   19   20 1
    29   19   21 1
    30   19   40 1
    31   20   41 1
    32   21   22 1
    33   21   42 1
    34   22   23 ar
    35   22   31 ar
    36   23   24 ar
    37   23   43 1
    38   24   25 ar
    39   24   47 1
    40   25   26 ar
    41   25   31 ar
    42   26   27 1
    43   26   28 ar
    44   27   44 1
    45   27   45 1
    46   28   29 ar
    47   29   30 ar
    48   29   46 1
    49   30   31 ar
@<TRIPOS>SUBSTRUCTURE
     1 ACP         1 GROUP 0 A     ****
@<TRIPOS>MOLECULE
[[5-(6-amino-7,8-dihydropurin-8-ylium-9-yl)-3,4-dihydroxy-tetrahydrofuran-2-yl]methoxy-oxido-phosphoryl]oxy-[[hydroxy(oxido)phosphoryl]methyl]phosphinate
   47    49     1     0     0
SMALL
USER_CHARGES

@<TRIPOS>ATOM
      1 PG          5.6899    3.0776    0.4997 P.3       1 ACP         1.3755
      2 O1G         6.8843    3.6190   -0.2506 O.co2     1 ACP        -0.8970
      3 O2G         5.3151    1.6138    0.4649 O.co2     1 ACP        -0.8970
      4 O3G         5.7487    3.5832    2.0492 O.3       1 ACP        -0.7959
      5 PB          3.6218    4.1030   -1.7908 P.3       1 ACP         1.5194
      6 O1B         4.7426    4.6830   -2.6215 O.co2     1 ACP        -0.8958
      7 O2B         2.2352    4.7044   -1.7787 O.co2     1 ACP        -0.8958
      8 C3B         4.2081    4.0395   -0.0397 C.3       1 ACP        -0.5612
      9 PA          3.2331    1.6548   -3.4224 P.3       1 ACP         1.6019
     10 O1A         4.4130    1.8426   -4.3510 O.co2     1 ACP        -0.9040
     11 O2A         1.8268    1.9598   -3.8913 O.co2     1 ACP        -0.9040
     12 O3A         3.5157    2.4972   -2.0522 O.3       1 ACP        -0.8156
     13 O5'         3.2883    0.1336   -2.8242 O.3       1 ACP        -0.5465
     14 C5'         2.2816   -0.2918   -1.9206 C.3       1 ACP         0.2108
     15 C4'         2.7248    0.0226   -0.4980 C.3       1 ACP         0.0552
     16 O4'         2.4697    1.4219   -0.2462 O.3       1 ACP        -0.3428
     17 C3'         1.9404   -0.7419    0.5596 C.3       1 ACP         0.0750
     18 O3'         2.7418   -0.8086    1.7389 O.3       1 ACP        -0.6066
     19 C2'         0.7477    0.1630    0.7858 C.3       1 ACP         0.1185
     20 O2'         0.1373   -0.0577    2.0407 O.3       1 ACP        -0.5858
     21 C1'         1.3733    1.5427    0.6747 C.3       1 ACP         0.3826
     22 N9          0.4520    2.5240    0.1767 N.pl3     1 ACP        -0.5729
     23 C8         -0.2172    2.5216   -0.9668 C.ar      1 ACP         0.3288
     24 N7         -1.0011    3.5855   -1.1321 N.pl3     1 ACP        -0.5338
     25 C5         -0.8184    4.3200   -0.0123 C.ar      1 ACP        -0.2581
     26 C6         -1.3349    5.5079    0.4144 C.ar      1 ACP         0.7413
     27 N6         -2.2567    6.1930   -0.4036 N.pl3     1 ACP        -0.9512
     28 N1         -0.9716    6.0291    1.6069 N.ar      1 ACP        -0.7699
     29 C2         -0.0765    5.3009    2.3312 C.ar      1 ACP         0.6898
     30 N3          0.4933    4.1191    2.0023 N.ar      1 ACP        -0.6800
     31 C4          0.0865    3.6675    0.8123 C.ar      1 ACP         0.6129
     32 HOG3        6.5237    3.3304    2.5946 H         1 ACP         0.4199
     33 H3B1        4.3922    5.0760    0.2643 H         1 ACP         0.0672
     34 H3B2        3.3627    3.6702    0.5514 H         1 ACP         0.0672
     35 H5'1        1.3500    0.2325   -2.1560 H         1 ACP         0.0277
     36 H5'2        2.1267   -1.3683   -2.0444 H         1 ACP         0.0277
     37 H4'         3.8050   -0.1388   -0.4008 H         1 ACP         0.1249
     38 H3'         1.6784   -1.7629    0.2714 H         1 ACP         0.0564
     39 HO3'        2.2232   -1.2979    2.3953 H         1 ACP         0.4511
     40 H2'        -0.0011    0.0027    0.0003 H         1 ACP         0.0716
     41 HO2'       -0.6141    0.5574    2.1082 H         1 ACP         0.4454
     42 H1'         1.7826    1.9024    1.6451 H         1 ACP         0.1310
     43 H8         -0.1423    1.7373   -1.6999 H         1 ACP         0.3565
     44 HN61       -2.4811    5.8206   -1.3042 H         1 ACP         0.4414
     45 HN62       -2.5986    7.0863   -0.1113 H         1 ACP         0.4414
     46 H2          0.2128    5.7222    3.2871 H         1 ACP         0.0676
     47 H47        -1.5947    3.7835   -1.9255 H         1 ACP         0.5052
@<TRIPOS>BOND
     1    1    2 2
     2    1    3 1
     3    1    4 1
     4    1    8 1
     5    4   32 1
     6    5    6 2
     7    5    7 1
     8    5    8 1
     9    5   12 1
    10    8   33 1
    11    8   34 1
    12    9   10 2
    13    9   11 1
    14    9   12 1
    15    9   13 1
    16   13   14 1
    17   14   15 1
    18   14   35 1
    19   14   36 1
    20   15   16 1
    21   15   17 1
    22   15   37 1
    23   16   21 1
    24   17   18 1
    25   17   19 1
    26   17   38 1
    27   18   39 1
    28   19   20 1
    29   19   21 1
    30   19   40 1
    31   20   41 1
    32   21   22 1
    33   21   42 1
    34   22   23 ar
    35   22   31 ar
    36   23   24 ar
    37   23   43 1
    38   24   25 ar
    39   24   47 1
    40   25   26 ar
    41   25   31 ar
    42   26   27 1
    43   26   28 ar
    44   27   44 1
    45   27   45 1
    46   28   29 ar
    47   29   30 ar
    48   29   46 1
    49   30   31 ar
@<TRIPOS>SUBSTRUCTURE
     1 ACP         1 GROUP 0 A     ****
@<TRIPOS>MOLECULE
[[5-(6-amino-7,8-dihydropurin-8-ylium-9-yl)-3,4-dihydroxy-tetrahydrofuran-2-yl]methoxy-oxido-phosphoryl]oxy-[[hydroxy(oxido)phosphoryl]methyl]phosphinate
   47    49     1     0     0
SMALL
USER_CHARGES

@<TRIPOS>ATOM
      1 PG         -5.2315   -5.0947    4.5751 P.3       1 ACP         1.3755
      2 O1G        -6.0568   -3.9750    5.1649 O.co2     1 ACP        -0.8970
      3 O2G        -3.7622   -5.2608    4.8880 O.co2     1 ACP        -0.8970
      4 O3G        -5.9978   -6.5149    4.8111 O.3       1 ACP        -0.7959
      5 PB         -4.5596   -6.1778    1.5833 P.3       1 ACP         1.5194
      6 O1B        -4.9394   -5.7770    0.1770 O.co2     1 ACP        -0.8958
      7 O2B        -4.7954   -7.5734    2.1134 O.co2     1 ACP        -0.8958
      8 C3B        -5.3974   -5.0032    2.7376 C.3       1 ACP        -0.5612
      9 PA         -1.6235   -6.1545    1.1527 P.3       1 ACP         1.6019
     10 O1A        -1.6305   -5.5867   -0.2500 O.co2     1 ACP        -0.9040
     11 O2A        -1.3851   -7.6308    1.3856 O.co2     1 ACP        -0.9040
     12 O3A        -3.0204   -5.7338    1.8865 O.3       1 ACP        -0.8156
     13 O5'        -0.5697   -5.2855    2.0524 O.3       1 ACP        -0.5465
     14 C5'        -0.7840   -3.8935    2.2172 C.3       1 ACP         0.2108
     15 C4'        -0.0724   -3.1466    1.1027 C.3       1 ACP         0.0552
     16 O4'        -0.8674   -3.1929   -0.0945 O.3       1 ACP        -0.3428
     17 C3'         0.1338   -1.6715    1.4027 C.3       1 ACP         0.0750
     18 O3'         1.2893   -1.4445    2.1808 O.3       1 ACP        -0.6066
     19 C2'         0.2158   -1.0724    0.0128 C.3       1 ACP         0.1185
     20 O2'         1.5141   -1.2448   -0.5513 O.3       1 ACP        -0.5858
     21 C1'        -0.7897   -1.9176   -0.7583 C.3       1 ACP         0.3826
     22 N9         -2.1040   -1.3333   -0.7704 N.pl3     1 ACP        -0.5729
     23 C8         -3.0822   -1.4850    0.1102 C.ar      1 ACP         0.3288
     24 N7         -4.1844   -0.7999   -0.1888 N.pl3     1 ACP        -0.5338
     25 C5         -3.8875   -0.1651   -1.3445 C.ar      1 ACP        -0.2581
     26 C6         -4.5941    0.6799   -2.1486 C.ar      1 ACP         0.7413
     27 N6         -5.9138    1.0274   -1.7939 N.pl3     1 ACP        -0.9512
     28 N1         -4.0421    1.1824   -3.2748 N.ar      1 ACP        -0.7699
     29 C2         -2.7637    0.7937   -3.5405 C.ar      1 ACP         0.6898
     30 N3         -1.9788   -0.0343   -2.8139 N.ar      1 ACP        -0.6800
     31 C4         -2.5915   -0.4902   -1.7174 C.ar      1 ACP         0.6129
     32 HOG3       -6.1846   -6.7984    5.7314 H         1 ACP         0.4199
     33 H3B1       -5.0663   -3.9983    2.4530 H         1 ACP         0.0672
     34 H3B2       -6.4683   -5.0701    2.5162 H         1 ACP         0.0672
     35 H5'1       -1.8599   -3.6946    2.1849 H         1 ACP         0.0277
     36 H5'2       -0.3934   -3.5881    3.1930 H         1 ACP         0.0277
     37 H4'         0.8886   -3.6447    0.8779 H         1 ACP         0.1249
     38 H3'        -0.7373   -1.2359    1.9870 H         1 ACP         0.0564
     39 HO3'        1.3408   -0.4870    2.3219 H         1 ACP         0.4511
     40 H2'        -0.0384   -0.0310    0.0096 H         1 ACP         0.0716
     41 HO2'        2.1463   -0.7958    0.0370 H         1 ACP         0.4454
     42 H1'        -0.4769   -2.1002   -1.8093 H         1 ACP         0.1310
     43 H8         -3.0031   -2.1011    0.9891 H         1 ACP         0.3565
     44 HN61       -6.3271    0.6117   -0.9836 H         1 ACP         0.4414
     45 HN62       -6.4471    1.6092   -2.4083 H         1 ACP         0.4414
     46 H2         -2.3243    1.1986   -4.4449 H         1 ACP         0.0676
     47 H47        -5.0436   -0.7722    0.3425 H         1 ACP         0.5052
@<TRIPOS>BOND
     1    1    2 2
     2    1    3 1
     3    1    4 1
     4    1    8 1
     5    4   32 1
     6    5    6 2
     7    5    7 1
     8    5    8 1
     9    5   12 1
    10    8   33 1
    11    8   34 1
    12    9   10 2
    13    9   11 1
    14    9   12 1
    15    9   13 1
    16   13   14 1
    17   14   15 1
    18   14   35 1
    19   14   36 1
    20   15   16 1
    21   15   17 1
    22   15   37 1
    23   16   21 1
    24   17   18 1
    25   17   19 1
    26   17   38 1
    27   18   39 1
    28   19   20 1
    29   19   21 1
    30   19   40 1
    31   20   41 1
    32   21   22 1
    33   21   42 1
    34   22   23 ar
    35   22   31 ar
    36   23   24 ar
    37   23   43 1
    38   24   25 ar
    39   24   47 1
    40   25   26 ar
    41   25   31 ar
    42   26   27 1
    43   26   28 ar
    44   27   44 1
    45   27   45 1
    46   28   29 ar
    47   29   30 ar
    48   29   46 1
    49   30   31 ar
@<TRIPOS>SUBSTRUCTURE
     1 ACP         1 GROUP 0 A     ****
@<TRIPOS>MOLECULE
[[5-(6-amino-7,8-dihydropurin-8-ylium-9-yl)-3,4-dihydroxy-tetrahydrofuran-2-yl]methoxy-oxido-phosphoryl]oxy-[[hydroxy(oxido)phosphoryl]methyl]phosphinate
   47    49     1     0     0
SMALL
USER_CHARGES

@<TRIPOS>ATOM
      1 PG         -0.3177   -2.0780   -6.0238 P.3       1 ACP         1.3755
      2 O1G        -1.6086   -2.8262   -5.7860 O.co2     1 ACP        -0.8970
      3 O2G         0.9653   -2.4432   -5.3135 O.co2     1 ACP        -0.8970
      4 O3G        -0.0375   -1.9771   -7.6273 O.3       1 ACP        -0.7959
      5 PB          0.6524    1.0215   -5.8571 P.3       1 ACP         1.5194
      6 O1B         0.0043    2.3406   -5.5070 O.co2     1 ACP        -0.8958
      7 O2B         1.3577    0.7965   -7.1748 O.co2     1 ACP        -0.8958
      8 C3B        -0.6402   -0.2890   -5.6954 C.3       1 ACP        -0.5612
      9 PA          2.9215    1.2532   -3.9587 P.3       1 ACP         1.6019
     10 O1A         2.4657    2.5119   -3.2532 O.co2     1 ACP        -0.9040
     11 O2A         4.0280    1.3050   -4.9899 O.co2     1 ACP        -0.9040
     12 O3A         1.6174    0.5395   -4.6346 O.3       1 ACP        -0.8156
     13 O5'         3.2883    0.1336   -2.8242 O.3       1 ACP        -0.5465
     14 C5'         2.2816   -0.2918   -1.9206 C.3       1 ACP         0.2108
     15 C4'         2.7248    0.0226   -0.4980 C.3       1 ACP         0.0552
     16 O4'         2.4697    1.4219   -0.2462 O.3       1 ACP        -0.3428
     17 C3'         1.9404   -0.7419    0.5596 C.3       1 ACP         0.0750
     18 O3'         2.7418   -0.8086    1.7389 O.3       1 ACP        -0.6066
     19 C2'         0.7477    0.1630    0.7858 C.3       1 ACP         0.1185
     20 O2'         0.1373   -0.0577    2.0407 O.3       1 ACP        -0.5858
     21 C1'         1.3733    1.5427    0.6747 C.3       1 ACP         0.3826
     22 N9          0.4520    2.5240    0.1767 N.pl3     1 ACP        -0.5729
     23 C8         -0.8602    2.5861    0.3496 C.ar      1 ACP         0.3288
     24 N7         -1.4308    3.6326   -0.2443 N.pl3     1 ACP        -0.5338
     25 C5         -0.4080    4.2856   -0.8394 C.ar      1 ACP        -0.2581
     26 C6         -0.3432    5.4196   -1.5943 C.ar      1 ACP         0.7413
     27 N6         -1.5276    6.1333   -1.8702 N.pl3     1 ACP        -0.9512
     28 N1          0.8395    5.8603   -2.0764 N.ar      1 ACP        -0.7699
     29 C2          1.9319    5.1095   -1.7617 C.ar      1 ACP         0.6898
     30 N3          1.9773    3.9761   -1.0249 N.ar      1 ACP        -0.6800
     31 C4          0.7724    3.6031   -0.5836 C.ar      1 ACP         0.6129
     32 HOG3        0.0563   -2.8087   -8.1390 H         1 ACP         0.4199
     33 H3B1       -1.0137   -0.2321   -4.6669 H         1 ACP         0.0672
     34 H3B2       -1.4601    0.0083   -6.3585 H         1 ACP         0.0672
     35 H5'1        1.3500    0.2325   -2.1560 H         1 ACP         0.0277
     36 H5'2        2.1267   -1.3683   -2.0444 H         1 ACP         0.0277
     37 H4'         3.8050   -0.1388   -0.4008 H         1 ACP         0.1249
     38 H3'         1.6784   -1.7629    0.2714 H         1 ACP         0.0564
     39 HO3'        3.5554   -1.2733    1.4914 H         1 ACP         0.4511
     40 H2'        -0.0011    0.0027    0.0003 H         1 ACP         0.0716
     41 HO2'       -0.1563   -0.9855    2.0596 H         1 ACP         0.4454
     42 H1'         1.7826    1.9024    1.6451 H         1 ACP         0.1310
     43 H8         -1.4217    1.8638    0.9164 H         1 ACP         0.3565
     44 HN61       -2.4023    5.7711   -1.5477 H         1 ACP         0.4414
     45 HN62       -1.4857    6.9379   -2.4627 H         1 ACP         0.4414
     46 H2          2.8789    5.4660   -2.1503 H         1 ACP         0.0676
     47 H47        -2.4129    3.8706   -0.2402 H         1 ACP         0.5052
@<TRIPOS>BOND
     1    1    2 2
     2    1    3 1
     3    1    4 1
     4    1    8 1
     5    4   32 1
     6    5    6 2
     7    5    7 1
     8    5    8 1
     9    5   12 1
    10    8   33 1
    11    8   34 1
    12    9   10 2
    13    9   11 1
    14    9   12 1
    15    9   13 1
    16   13   14 1
    17   14   15 1
    18   14   35 1
    19   14   36 1
    20   15   16 1
    21   15   17 1
    22   15   37 1
    23   16   21 1
    24   17   18 1
    25   17   19 1
    26   17   38 1
    27   18   39 1
    28   19   20 1
    29   19   21 1
    30   19   40 1
    31   20   41 1
    32   21   22 1
    33   21   42 1
    34   22   23 ar
    35   22   31 ar
    36   23   24 ar
    37   23   43 1
    38   24   25 ar
    39   24   47 1
    40   25   26 ar
    41   25   31 ar
    42   26   27 1
    43   26   28 ar
    44   27   44 1
    45   27   45 1
    46   28   29 ar
    47   29   30 ar
    48   29   46 1
    49   30   31 ar
@<TRIPOS>SUBSTRUCTURE
     1 ACP         1 GROUP 0 A     ****
@<TRIPOS>MOLECULE
[[5-(6-amino-7,8-dihydropurin-8-ylium-9-yl)-3,4-dihydroxy-tetrahydrofuran-2-yl]methoxy-oxido-phosphoryl]oxy-[[hydroxy(oxido)phosphoryl]methyl]phosphinate
   47    49     1     0     0
SMALL
USER_CHARGES

@<TRIPOS>ATOM
      1 PG          7.1924   -1.7006   -0.2693 P.3       1 ACP         1.3755
      2 O1G         8.0702   -0.9242    0.6843 O.co2     1 ACP        -0.8970
      3 O2G         7.3367   -3.1929   -0.4601 O.co2     1 ACP        -0.8970
      4 O3G         5.6280   -1.3420    0.0204 O.3       1 ACP        -0.7959
      5 PB          6.4451   -1.5235   -3.4293 P.3       1 ACP         1.5194
      6 O1B         6.8833   -2.9493   -3.6696 O.co2     1 ACP        -0.8958
      7 O2B         6.5651   -0.4552   -4.4916 O.co2     1 ACP        -0.8958
      8 C3B         7.3435   -0.9143   -1.9340 C.3       1 ACP        -0.5612
      9 PA          3.5286   -2.0718   -3.4129 P.3       1 ACP         1.6019
     10 O1A         3.6075   -3.5816   -3.4780 O.co2     1 ACP        -0.9040
     11 O2A         3.1762   -1.2645   -4.6435 O.co2     1 ACP        -0.9040
     12 O3A         4.9372   -1.5072   -2.8095 O.3       1 ACP        -0.8156
     13 O5'         2.5237   -1.6631   -2.1889 O.3       1 ACP        -0.5465
     14 C5'         2.2816   -0.2918   -1.9206 C.3       1 ACP         0.2108
     15 C4'         2.7248    0.0226   -0.4980 C.3       1 ACP         0.0552
     16 O4'         2.4697    1.4219   -0.2462 O.3       1 ACP        -0.3428
     17 C3'         1.9404   -0.7419    0.5596 C.3       1 ACP         0.0750
     18 O3'         2.7418   -0.8086    1.7389 O.3       1 ACP        -0.6066
     19 C2'         0.7477    0.1630    0.7858 C.3       1 ACP         0.1185
     20 O2'         0.1373   -0.0577    2.0407 O.3       1 ACP        -0.5858
     21 C1'         1.3733    1.5427    0.6747 C.3       1 ACP         0.3826
     22 N9          0.4520    2.5240    0.1767 N.pl3     1 ACP        -0.5729
     23 C8         -0.8602    2.5861    0.3496 C.ar      1 ACP         0.3288
     24 N7         -1.4308    3.6326   -0.2443 N.pl3     1 ACP        -0.5338
     25 C5         -0.4080    4.2856   -0.8394 C.ar      1 ACP        -0.2581
     26 C6         -0.3432    5.4196   -1.5943 C.ar      1 ACP         0.7413
     27 N6         -1.5276    6.1333   -1.8702 N.pl3     1 ACP        -0.9512
     28 N1          0.8395    5.8603   -2.0764 N.ar      1 ACP        -0.7699
     29 C2          1.9319    5.1095   -1.7617 C.ar      1 ACP         0.6898
     30 N3          1.9773    3.9761   -1.0249 N.ar      1 ACP        -0.6800
     31 C4          0.7724    3.6031   -0.5836 C.ar      1 ACP         0.6129
     32 HOG3        5.2616   -1.5318    0.9103 H         1 ACP         0.4199
     33 H3B1        8.4103   -0.9338   -2.1828 H         1 ACP         0.0672
     34 H3B2        7.0548    0.1355   -1.8118 H         1 ACP         0.0672
     35 H5'1        2.8429    0.3140   -2.6391 H         1 ACP         0.0277
     36 H5'2        1.2125   -0.0906   -2.0420 H         1 ACP         0.0277
     37 H4'         3.8050   -0.1388   -0.4008 H         1 ACP         0.1249
     38 H3'         1.6784   -1.7629    0.2714 H         1 ACP         0.0564
     39 HO3'        2.2232   -1.2979    2.3953 H         1 ACP         0.4511
     40 H2'        -0.0011    0.0027    0.0003 H         1 ACP         0.0716
     41 HO2'       -0.1563   -0.9855    2.0596 H         1 ACP         0.4454
     42 H1'         1.7826    1.9024    1.6451 H         1 ACP         0.1310
     43 H8         -1.4217    1.8638    0.9164 H         1 ACP         0.3565
     44 HN61       -2.4023    5.7711   -1.5477 H         1 ACP         0.4414
     45 HN62       -1.4857    6.9379   -2.4627 H         1 ACP         0.4414
     46 H2          2.8789    5.4660   -2.1503 H         1 ACP         0.0676
     47 H47        -2.4129    3.8706   -0.2402 H         1 ACP         0.5052
@<TRIPOS>BOND
     1    1    2 2
     2    1    3 1
     3    1    4 1
     4    1    8 1
     5    4   32 1
     6    5    6 2
     7    5    7 1
     8    5    8 1
     9    5   12 1
    10    8   33 1
    11    8   34 1
    12    9   10 2
    13    9   11 1
    14    9   12 1
    15    9   13 1
    16   13   14 1
    17   14   15 1
    18   14   35 1
    19   14   36 1
    20   15   16 1
    21   15   17 1
    22   15   37 1
    23   16   21 1
    24   17   18 1
    25   17   19 1
    26   17   38 1
    27   18   39 1
    28   19   20 1
    29   19   21 1
    30   19   40 1
    31   20   41 1
    32   21   22 1
    33   21   42 1
    34   22   23 ar
    35   22   31 ar
    36   23   24 ar
    37   23   43 1
    38   24   25 ar
    39   24   47 1
    40   25   26 ar
    41   25   31 ar
    42   26   27 1
    43   26   28 ar
    44   27   44 1
    45   27   45 1
    46   28   29 ar
    47   29   30 ar
    48   29   46 1
    49   30   31 ar
@<TRIPOS>SUBSTRUCTURE
     1 ACP         1 GROUP 0 A     ****
@<TRIPOS>MOLECULE
[[5-(6-amino-7,8-dihydropurin-8-ylium-9-yl)-3,4-dihydroxy-tetrahydrofuran-2-yl]methoxy-oxido-phosphoryl]oxy-[[hydroxy(oxido)phosphoryl]methyl]phosphinate
   47    49     1     0     0
SMALL
USER_CHARGES

@<TRIPOS>ATOM
      1 PG          2.6662   -0.5078   -7.3242 P.3       1 ACP         1.3755
      2 O1G         2.1412    0.6268   -8.1727 O.co2     1 ACP        -0.8970
      3 O2G         1.8002   -1.2215   -6.3119 O.co2     1 ACP        -0.8970
      4 O3G         3.3960   -1.6079   -8.2819 O.3       1 ACP        -0.7959
      5 PB          5.1516   -0.9350   -5.2710 P.3       1 ACP         1.5194
      6 O1B         6.2846   -0.0812   -4.7514 O.co2     1 ACP        -0.8958
      7 O2B         5.3918   -2.2630   -5.9514 O.co2     1 ACP        -0.8958
      8 C3B         4.1634    0.1069   -6.4337 C.3       1 ACP        -0.5612
      9 PA          3.9654   -2.1111   -2.8181 P.3       1 ACP         1.6019
     10 O1A         5.0538   -1.6991   -1.8510 O.co2     1 ACP        -0.9040
     11 O2A         3.8753   -3.5376   -3.3154 O.co2     1 ACP        -0.9040
     12 O3A         4.0200   -1.1150   -4.1111 O.3       1 ACP        -0.8156
     13 O5'         2.5237   -1.6631   -2.1889 O.3       1 ACP        -0.5465
     14 C5'         2.2816   -0.2918   -1.9206 C.3       1 ACP         0.2108
     15 C4'         2.7248    0.0226   -0.4980 C.3       1 ACP         0.0552
     16 O4'         2.4697    1.4219   -0.2462 O.3       1 ACP        -0.3428
     17 C3'         1.9404   -0.7419    0.5596 C.3       1 ACP         0.0750
     18 O3'         2.7418   -0.8086    1.7389 O.3       1 ACP        -0.6066
     19 C2'         0.7477    0.1630    0.7858 C.3       1 ACP         0.1185
     20 O2'         0.1373   -0.0577    2.0407 O.3       1 ACP        -0.5858
     21 C1'         1.3733    1.5427    0.6747 C.3       1 ACP         0.3826
     22 N9          0.4520    2.5240    0.1767 N.pl3     1 ACP        -0.5729
     23 C8         -0.5899    2.3466   -0.6224 C.ar      1 ACP         0.3288
     24 N7         -1.2514    3.4689   -0.8989 N.pl3     1 ACP        -0.5338
     25 C5         -0.5826    4.4323   -0.2272 C.ar      1 ACP        -0.2581
     26 C6         -0.7636    5.7789   -0.1086 C.ar      1 ACP         0.7413
     27 N6         -1.8382    6.3927   -0.7843 N.pl3     1 ACP        -0.9512
     28 N1          0.0741    6.5233    0.6461 N.ar      1 ACP        -0.7699
     29 C2          1.0845    5.8486    1.2626 C.ar      1 ACP         0.6898
     30 N3          1.3516    4.5236    1.2116 N.ar      1 ACP        -0.6800
     31 C4          0.4827    3.8546    0.4481 C.ar      1 ACP         0.6129
     32 HOG3        2.8654   -2.0431   -8.9828 H         1 ACP         0.4199
     33 H3B1        3.8385    0.9851   -5.8648 H         1 ACP         0.0672
     34 H3B2        4.8635    0.4548   -7.2013 H         1 ACP         0.0672
     35 H5'1        2.8429    0.3140   -2.6391 H         1 ACP         0.0277
     36 H5'2        1.2125   -0.0906   -2.0420 H         1 ACP         0.0277
     37 H4'         3.8050   -0.1388   -0.4008 H         1 ACP         0.1249
     38 H3'         1.6784   -1.7629    0.2714 H         1 ACP         0.0564
     39 HO3'        2.2232   -1.2979    2.3953 H         1 ACP         0.4511
     40 H2'        -0.0011    0.0027    0.0003 H         1 ACP         0.0716
     41 HO2'       -0.6141    0.5574    2.1082 H         1 ACP         0.4454
     42 H1'         1.7826    1.9024    1.6451 H         1 ACP         0.1310
     43 H8         -0.8833    1.3888   -1.0158 H         1 ACP         0.3565
     44 HN61       -2.4225    5.8385   -1.3773 H         1 ACP         0.4414
     45 HN62       -1.9421    7.3862   -0.7348 H         1 ACP         0.4414
     46 H2          1.7546    6.4491    1.8670 H         1 ACP         0.0676
     47 H47        -2.0705    3.5612   -1.4834 H         1 ACP         0.5052
@<TRIPOS>BOND
     1    1    2 2
     2    1    3 1
     3    1    4 1
     4    1    8 1
     5    4   32 1
     6    5    6 2
     7    5    7 1
     8    5    8 1
     9    5   12 1
    10    8   33 1
    11    8   34 1
    12    9   10 2
    13    9   11 1
    14    9   12 1
    15    9   13 1
    16   13   14 1
    17   14   15 1
    18   14   35 1
    19   14   36 1
    20   15   16 1
    21   15   17 1
    22   15   37 1
    23   16   21 1
    24   17   18 1
    25   17   19 1
    26   17   38 1
    27   18   39 1
    28   19   20 1
    29   19   21 1
    30   19   40 1
    31   20   41 1
    32   21   22 1
    33   21   42 1
    34   22   23 ar
    35   22   31 ar
    36   23   24 ar
    37   23   43 1
    38   24   25 ar
    39   24   47 1
    40   25   26 ar
    41   25   31 ar
    42   26   27 1
    43   26   28 ar
    44   27   44 1
    45   27   45 1
    46   28   29 ar
    47   29   30 ar
    48   29   46 1
    49   30   31 ar
@<TRIPOS>SUBSTRUCTURE
     1 ACP         1 GROUP 0 A     ****
@<TRIPOS>MOLECULE
[[5-(6-amino-7,8-dihydropurin-8-ylium-9-yl)-3,4-dihydroxy-tetrahydrofuran-2-yl]methoxy-oxido-phosphoryl]oxy-[[hydroxy(oxido)phosphoryl]methyl]phosphinate
   47    49     1     0     0
SMALL
USER_CHARGES

@<TRIPOS>ATOM
      1 PG         -4.6368   -2.0623    4.2451 P.3       1 ACP         1.3755
      2 O1G        -3.5495   -2.0900    3.1964 O.co2     1 ACP        -0.8970
      3 O2G        -5.6703   -0.9610    4.3020 O.co2     1 ACP        -0.8970
      4 O3G        -5.3872   -3.5097    4.2859 O.3       1 ACP        -0.7959
      5 PB         -2.7417   -3.5396    6.4362 P.3       1 ACP         1.5194
      6 O1B        -3.5816   -4.7949    6.3982 O.co2     1 ACP        -0.8958
      7 O2B        -2.0153   -3.0954    7.6850 O.co2     1 ACP        -0.8958
      8 C3B        -3.8193   -2.1378    5.8998 C.3       1 ACP        -0.5612
      9 PA         -0.5272   -4.5716    4.7518 P.3       1 ACP         1.6019
     10 O1A        -1.1664   -5.8869    4.3629 O.co2     1 ACP        -0.9040
     11 O2A         0.5547   -4.5231    5.8089 O.co2     1 ACP        -0.9040
     12 O3A        -1.7101   -3.5279    5.1738 O.3       1 ACP        -0.8156
     13 O5'         0.0099   -3.8403    3.3910 O.3       1 ACP        -0.5465
     14 C5'        -0.7840   -3.8935    2.2172 C.3       1 ACP         0.2108
     15 C4'        -0.0724   -3.1466    1.1027 C.3       1 ACP         0.0552
     16 O4'        -0.8674   -3.1929   -0.0945 O.3       1 ACP        -0.3428
     17 C3'         0.1338   -1.6715    1.4027 C.3       1 ACP         0.0750
     18 O3'         1.2893   -1.4445    2.1808 O.3       1 ACP        -0.6066
     19 C2'         0.2158   -1.0724    0.0128 C.3       1 ACP         0.1185
     20 O2'         1.5141   -1.2448   -0.5513 O.3       1 ACP        -0.5858
     21 C1'        -0.7897   -1.9176   -0.7583 C.3       1 ACP         0.3826
     22 N9         -2.1040   -1.3333   -0.7704 N.pl3     1 ACP        -0.5729
     23 C8         -2.8739   -1.0133    0.2593 C.ar      1 ACP         0.3288
     24 N7         -4.0439   -0.4818   -0.0902 N.pl3     1 ACP        -0.5338
     25 C5         -4.0184   -0.4615   -1.4414 C.ar      1 ACP        -0.2581
     26 C6         -4.9120   -0.0399   -2.3814 C.ar      1 ACP         0.7413
     27 N6         -6.1459    0.5018   -1.9665 N.pl3     1 ACP        -0.9512
     28 N1         -4.6250   -0.1374   -3.6981 N.ar      1 ACP        -0.7699
     29 C2         -3.4114   -0.6729   -4.0088 C.ar      1 ACP         0.6898
     30 N3         -2.4579   -1.1190   -3.1595 N.ar      1 ACP        -0.6800
     31 C4         -2.8124   -0.9904   -1.8776 C.ar      1 ACP         0.6129
     32 HOG3       -5.8314   -3.8295    3.4719 H         1 ACP         0.4199
     33 H3B1       -4.6243   -2.0638    6.6394 H         1 ACP         0.0672
     34 H3B2       -3.2086   -1.2325    5.9889 H         1 ACP         0.0672
     35 H5'1       -0.9358   -4.9414    1.9395 H         1 ACP         0.0277
     36 H5'2       -1.7558   -3.4349    2.4258 H         1 ACP         0.0277
     37 H4'         0.8886   -3.6447    0.8779 H         1 ACP         0.1249
     38 H3'        -0.7373   -1.2359    1.9870 H         1 ACP         0.0564
     39 HO3'        1.1626   -1.9325    3.0084 H         1 ACP         0.4511
     40 H2'        -0.0384   -0.0310    0.0096 H         1 ACP         0.0716
     41 HO2'        2.1463   -0.7958    0.0370 H         1 ACP         0.4454
     42 H1'        -0.4769   -2.1002   -1.8093 H         1 ACP         0.1310
     43 H8         -2.5891   -1.1636    1.2862 H         1 ACP         0.3565
     44 HN61       -6.3657    0.5248   -0.9911 H         1 ACP         0.4414
     45 HN62       -6.8193    0.7669   -2.6568 H         1 ACP         0.4414
     46 H2         -3.1848   -0.7497   -5.0660 H         1 ACP         0.0676
     47 H47        -4.7768   -0.1684    0.5309 H         1 ACP         0.5052
@<TRIPOS>BOND
     1    1    2 2
     2    1    3 1
     3    1    4 1
     4    1    8 1
     5    4   32 1
     6    5    6 2
     7    5    7 1
     8    5    8 1
     9    5   12 1
    10    8   33 1
    11    8   34 1
    12    9   10 2
    13    9   11 1
    14    9   12 1
    15    9   13 1
    16   13   14 1
    17   14   15 1
    18   14   35 1
    19   14   36 1
    20   15   16 1
    21   15   17 1
    22   15   37 1
    23   16   21 1
    24   17   18 1
    25   17   19 1
    26   17   38 1
    27   18   39 1
    28   19   20 1
    29   19   21 1
    30   19   40 1
    31   20   41 1
    32   21   22 1
    33   21   42 1
    34   22   23 ar
    35   22   31 ar
    36   23   24 ar
    37   23   43 1
    38   24   25 ar
    39   24   47 1
    40   25   26 ar
    41   25   31 ar
    42   26   27 1
    43   26   28 ar
    44   27   44 1
    45   27   45 1
    46   28   29 ar
    47   29   30 ar
    48   29   46 1
    49   30   31 ar
@<TRIPOS>SUBSTRUCTURE
     1 ACP         1 GROUP 0 A     ****
@<TRIPOS>MOLECULE
[[5-(6-amino-7,8-dihydropurin-8-ylium-9-yl)-3,4-dihydroxy-tetrahydrofuran-2-yl]methoxy-oxido-phosphoryl]oxy-[[hydroxy(oxido)phosphoryl]methyl]phosphinate
   47    49     1     0     0
SMALL
USER_CHARGES

@<TRIPOS>ATOM
      1 PG         -2.5914   -1.5482    0.4595 P.3       1 ACP         1.3755
      2 O1G        -3.3145   -0.4949    1.2660 O.co2     1 ACP        -0.8970
      3 O2G        -1.1528   -1.9224    0.7327 O.co2     1 ACP        -0.8970
      4 O3G        -3.4991   -2.9018    0.3983 O.3       1 ACP        -0.7959
      5 PB         -1.9657   -2.0599   -2.6904 P.3       1 ACP         1.5194
      6 O1B        -2.2738   -1.3441   -3.9848 O.co2     1 ACP        -0.8958
      7 O2B        -2.3496   -3.5032   -2.4583 O.co2     1 ACP        -0.8958
      8 C3B        -2.7079   -1.0671   -1.3201 C.3       1 ACP        -0.5612
      9 PA          0.9669   -2.2461   -3.1050 P.3       1 ACP         1.6019
     10 O1A         1.0461   -1.4061   -4.3611 O.co2     1 ACP        -0.9040
     11 O2A         1.0532   -3.7552   -3.1799 O.co2     1 ACP        -0.9040
     12 O3A        -0.3971   -1.8451   -2.3014 O.3       1 ACP        -0.8156
     13 O5'         2.0818   -1.6902   -2.0452 O.3       1 ACP        -0.5465
     14 C5'         2.2816   -0.2918   -1.9206 C.3       1 ACP         0.2108
     15 C4'         2.7248    0.0226   -0.4980 C.3       1 ACP         0.0552
     16 O4'         2.4697    1.4219   -0.2462 O.3       1 ACP        -0.3428
     17 C3'         1.9404   -0.7419    0.5596 C.3       1 ACP         0.0750
     18 O3'         2.7418   -0.8086    1.7389 O.3       1 ACP        -0.6066
     19 C2'         0.7477    0.1630    0.7858 C.3       1 ACP         0.1185
     20 O2'         0.1373   -0.0577    2.0407 O.3       1 ACP        -0.5858
     21 C1'         1.3733    1.5427    0.6747 C.3       1 ACP         0.3826
     22 N9          0.4520    2.5240    0.1767 N.pl3     1 ACP        -0.5729
     23 C8          0.5305    3.2394   -0.9358 C.ar      1 ACP         0.3288
     24 N7         -0.4966    4.0680   -1.1145 N.pl3     1 ACP        -0.5338
     25 C5         -1.2879    3.8664   -0.0375 C.ar      1 ACP        -0.2581
     26 C6         -2.4754    4.4084    0.3577 C.ar      1 ACP         0.7413
     27 N6         -3.0892    5.3882   -0.4495 N.pl3     1 ACP        -0.9512
     28 N1         -3.0632    4.0158    1.5092 N.ar      1 ACP        -0.7699
     29 C2         -2.4008    3.0654    2.2262 C.ar      1 ACP         0.6898
     30 N3         -1.2259    2.4663    1.9260 N.ar      1 ACP        -0.6800
     31 C4         -0.7062    2.9047    0.7757 C.ar      1 ACP         0.6129
     32 HOG3       -3.7327   -3.3468    1.2407 H         1 ACP         0.4199
     33 H3B1       -2.2732   -0.0640   -1.3921 H         1 ACP         0.0672
     34 H3B2       -3.7752   -0.9788   -1.5514 H         1 ACP         0.0672
     35 H5'1        3.0467    0.0218   -2.6379 H         1 ACP         0.0277
     36 H5'2        1.3432    0.2220   -2.1518 H         1 ACP         0.0277
     37 H4'         3.8050   -0.1388   -0.4008 H         1 ACP         0.1249
     38 H3'         1.6784   -1.7629    0.2714 H         1 ACP         0.0564
     39 HO3'        2.2232   -1.2979    2.3953 H         1 ACP         0.4511
     40 H2'        -0.0011    0.0027    0.0003 H         1 ACP         0.0716
     41 HO2'       -0.1563   -0.9855    2.0596 H         1 ACP         0.4454
     42 H1'         1.7826    1.9024    1.6451 H         1 ACP         0.1310
     43 H8          1.3437    3.1645   -1.6367 H         1 ACP         0.3565
     44 HN61       -2.6210    5.7042   -1.2748 H         1 ACP         0.4414
     45 HN62       -3.9356    5.8187   -0.1356 H         1 ACP         0.4414
     46 H2         -2.8752    2.7532    3.1495 H         1 ACP         0.0676
     47 H47        -0.6372    4.7004   -1.8900 H         1 ACP         0.5052
@<TRIPOS>BOND
     1    1    2 2
     2    1    3 1
     3    1    4 1
     4    1    8 1
     5    4   32 1
     6    5    6 2
     7    5    7 1
     8    5    8 1
     9    5   12 1
    10    8   33 1
    11    8   34 1
    12    9   10 2
    13    9   11 1
    14    9   12 1
    15    9   13 1
    16   13   14 1
    17   14   15 1
    18   14   35 1
    19   14   36 1
    20   15   16 1
    21   15   17 1
    22   15   37 1
    23   16   21 1
    24   17   18 1
    25   17   19 1
    26   17   38 1
    27   18   39 1
    28   19   20 1
    29   19   21 1
    30   19   40 1
    31   20   41 1
    32   21   22 1
    33   21   42 1
    34   22   23 ar
    35   22   31 ar
    36   23   24 ar
    37   23   43 1
    38   24   25 ar
    39   24   47 1
    40   25   26 ar
    41   25   31 ar
    42   26   27 1
    43   26   28 ar
    44   27   44 1
    45   27   45 1
    46   28   29 ar
    47   29   30 ar
    48   29   46 1
    49   30   31 ar
@<TRIPOS>SUBSTRUCTURE
     1 ACP         1 GROUP 0 A     ****
@<TRIPOS>MOLECULE
[[5-(6-amino-7,8-dihydropurin-8-ylium-9-yl)-3,4-dihydroxy-tetrahydrofuran-2-yl]methoxy-oxido-phosphoryl]oxy-[[hydroxy(oxido)phosphoryl]methyl]phosphinate
   47    49     1     0     0
SMALL
USER_CHARGES

@<TRIPOS>ATOM
      1 PG         -5.1675   -4.3519    3.9155 P.3       1 ACP         1.3755
      2 O1G        -5.8776   -4.1648    5.2360 O.co2     1 ACP        -0.8970
      3 O2G        -5.6133   -3.6450    2.6562 O.co2     1 ACP        -0.8970
      4 O3G        -3.5662   -4.1244    4.1245 O.3       1 ACP        -0.7959
      5 PB         -4.3646   -6.8772    2.0304 P.3       1 ACP         1.5194
      6 O1B        -5.0838   -6.2879    0.8395 O.co2     1 ACP        -0.8958
      7 O2B        -4.2507   -8.3691    2.2439 O.co2     1 ACP        -0.8958
      8 C3B        -5.1352   -6.1623    3.5501 C.3       1 ACP        -0.5612
      9 PA         -1.6235   -6.1545    1.1527 P.3       1 ACP         1.6019
     10 O1A        -2.0102   -5.3284   -0.0547 O.co2     1 ACP        -0.9040
     11 O2A        -1.0989   -7.5643    0.9863 O.co2     1 ACP        -0.9040
     12 O3A        -2.8926   -6.1925    2.1797 O.3       1 ACP        -0.8156
     13 O5'        -0.5697   -5.2855    2.0524 O.3       1 ACP        -0.5465
     14 C5'        -0.7840   -3.8935    2.2172 C.3       1 ACP         0.2108
     15 C4'        -0.0724   -3.1466    1.1027 C.3       1 ACP         0.0552
     16 O4'        -0.8674   -3.1929   -0.0945 O.3       1 ACP        -0.3428
     17 C3'         0.1338   -1.6715    1.4027 C.3       1 ACP         0.0750
     18 O3'         1.2893   -1.4445    2.1808 O.3       1 ACP        -0.6066
     19 C2'         0.2158   -1.0724    0.0128 C.3       1 ACP         0.1185
     20 O2'         1.5141   -1.2448   -0.5513 O.3       1 ACP        -0.5858
     21 C1'        -0.7897   -1.9176   -0.7583 C.3       1 ACP         0.3826
     22 N9         -2.1040   -1.3333   -0.7704 N.pl3     1 ACP        -0.5729
     23 C8         -3.0822   -1.4850    0.1102 C.ar      1 ACP         0.3288
     24 N7         -4.1844   -0.7999   -0.1888 N.pl3     1 ACP        -0.5338
     25 C5         -3.8875   -0.1651   -1.3445 C.ar      1 ACP        -0.2581
     26 C6         -4.5941    0.6799   -2.1486 C.ar      1 ACP         0.7413
     27 N6         -5.9138    1.0274   -1.7939 N.pl3     1 ACP        -0.9512
     28 N1         -4.0421    1.1824   -3.2748 N.ar      1 ACP        -0.7699
     29 C2         -2.7637    0.7937   -3.5405 C.ar      1 ACP         0.6898
     30 N3         -1.9788   -0.0343   -2.8139 N.ar      1 ACP        -0.6800
     31 C4         -2.5915   -0.4902   -1.7174 C.ar      1 ACP         0.6129
     32 HOG3       -3.2565   -3.2543    4.4551 H         1 ACP         0.4199
     33 H3B1       -6.1805   -6.4909    3.5526 H         1 ACP         0.0672
     34 H3B2       -4.6384   -6.6444    4.3993 H         1 ACP         0.0672
     35 H5'1       -1.8599   -3.6946    2.1849 H         1 ACP         0.0277
     36 H5'2       -0.3934   -3.5881    3.1930 H         1 ACP         0.0277
     37 H4'         0.8886   -3.6447    0.8779 H         1 ACP         0.1249
     38 H3'        -0.7373   -1.2359    1.9870 H         1 ACP         0.0564
     39 HO3'        1.3408   -0.4870    2.3219 H         1 ACP         0.4511
     40 H2'        -0.0384   -0.0310    0.0096 H         1 ACP         0.0716
     41 HO2'        2.1463   -0.7958    0.0370 H         1 ACP         0.4454
     42 H1'        -0.4769   -2.1002   -1.8093 H         1 ACP         0.1310
     43 H8         -3.0031   -2.1011    0.9891 H         1 ACP         0.3565
     44 HN61       -6.4144    1.6837   -2.3586 H         1 ACP         0.4414
     45 HN62       -6.2940    0.6861   -0.9341 H         1 ACP         0.4414
     46 H2         -2.3243    1.1986   -4.4449 H         1 ACP         0.0676
     47 H47        -5.0436   -0.7722    0.3425 H         1 ACP         0.5052
@<TRIPOS>BOND
     1    1    2 2
     2    1    3 1
     3    1    4 1
     4    1    8 1
     5    4   32 1
     6    5    6 2
     7    5    7 1
     8    5    8 1
     9    5   12 1
    10    8   33 1
    11    8   34 1
    12    9   10 2
    13    9   11 1
    14    9   12 1
    15    9   13 1
    16   13   14 1
    17   14   15 1
    18   14   35 1
    19   14   36 1
    20   15   16 1
    21   15   17 1
    22   15   37 1
    23   16   21 1
    24   17   18 1
    25   17   19 1
    26   17   38 1
    27   18   39 1
    28   19   20 1
    29   19   21 1
    30   19   40 1
    31   20   41 1
    32   21   22 1
    33   21   42 1
    34   22   23 ar
    35   22   31 ar
    36   23   24 ar
    37   23   43 1
    38   24   25 ar
    39   24   47 1
    40   25   26 ar
    41   25   31 ar
    42   26   27 1
    43   26   28 ar
    44   27   44 1
    45   27   45 1
    46   28   29 ar
    47   29   30 ar
    48   29   46 1
    49   30   31 ar
@<TRIPOS>SUBSTRUCTURE
     1 ACP         1 GROUP 0 A     ****
@<TRIPOS>MOLECULE
[[5-(6-amino-7,8-dihydropurin-8-ylium-9-yl)-3,4-dihydroxy-tetrahydrofuran-2-yl]methoxy-oxido-phosphoryl]oxy-[[hydroxy(oxido)phosphoryl]methyl]phosphinate
   47    49     1     0     0
SMALL
USER_CHARGES

@<TRIPOS>ATOM
      1 PG         -5.6973   -4.9572    3.9499 P.3       1 ACP         1.3755
      2 O1G        -7.1773   -5.2128    4.1142 O.co2     1 ACP        -0.8970
      3 O2G        -5.1471   -4.1206    2.8178 O.co2     1 ACP        -0.8970
      4 O3G        -5.0788   -4.4273    5.3629 O.3       1 ACP        -0.7959
      5 PB         -3.0232   -6.7896    3.6912 P.3       1 ACP         1.5194
      6 O1B        -2.7230   -8.2703    3.6833 O.co2     1 ACP        -0.8958
      7 O2B        -2.3656   -5.8408    4.6667 O.co2     1 ACP        -0.8958
      8 C3B        -4.8506   -6.5977    3.8856 C.3       1 ACP        -0.5612
      9 PA         -1.6235   -6.1545    1.1527 P.3       1 ACP         1.6019
     10 O1A        -2.0102   -5.3284   -0.0547 O.co2     1 ACP        -0.9040
     11 O2A        -1.0989   -7.5643    0.9863 O.co2     1 ACP        -0.9040
     12 O3A        -2.8926   -6.1925    2.1797 O.3       1 ACP        -0.8156
     13 O5'        -0.5697   -5.2855    2.0524 O.3       1 ACP        -0.5465
     14 C5'        -0.7840   -3.8935    2.2172 C.3       1 ACP         0.2108
     15 C4'        -0.0724   -3.1466    1.1027 C.3       1 ACP         0.0552
     16 O4'        -0.8674   -3.1929   -0.0945 O.3       1 ACP        -0.3428
     17 C3'         0.1338   -1.6715    1.4027 C.3       1 ACP         0.0750
     18 O3'         1.2893   -1.4445    2.1808 O.3       1 ACP        -0.6066
     19 C2'         0.2158   -1.0724    0.0128 C.3       1 ACP         0.1185
     20 O2'         1.5141   -1.2448   -0.5513 O.3       1 ACP        -0.5858
     21 C1'        -0.7897   -1.9176   -0.7583 C.3       1 ACP         0.3826
     22 N9         -2.1040   -1.3333   -0.7704 N.pl3     1 ACP        -0.5729
     23 C8         -3.0822   -1.4850    0.1102 C.ar      1 ACP         0.3288
     24 N7         -4.1844   -0.7999   -0.1888 N.pl3     1 ACP        -0.5338
     25 C5         -3.8875   -0.1651   -1.3445 C.ar      1 ACP        -0.2581
     26 C6         -4.5941    0.6799   -2.1486 C.ar      1 ACP         0.7413
     27 N6         -5.9138    1.0274   -1.7939 N.pl3     1 ACP        -0.9512
     28 N1         -4.0421    1.1824   -3.2748 N.ar      1 ACP        -0.7699
     29 C2         -2.7637    0.7937   -3.5405 C.ar      1 ACP         0.6898
     30 N3         -1.9788   -0.0343   -2.8139 N.ar      1 ACP        -0.6800
     31 C4         -2.5915   -0.4902   -1.7174 C.ar      1 ACP         0.6129
     32 HOG3       -5.4355   -3.5988    5.7483 H         1 ACP         0.4199
     33 H3B1       -5.3108   -7.1440    3.0547 H         1 ACP         0.0672
     34 H3B2       -5.1156   -7.1233    4.8097 H         1 ACP         0.0672
     35 H5'1       -1.8599   -3.6946    2.1849 H         1 ACP         0.0277
     36 H5'2       -0.3934   -3.5881    3.1930 H         1 ACP         0.0277
     37 H4'         0.8886   -3.6447    0.8779 H         1 ACP         0.1249
     38 H3'        -0.7373   -1.2359    1.9870 H         1 ACP         0.0564
     39 HO3'        2.0374   -1.7816    1.6652 H         1 ACP         0.4511
     40 H2'        -0.0384   -0.0310    0.0096 H         1 ACP         0.0716
     41 HO2'        1.4998   -0.8412   -1.4369 H         1 ACP         0.4454
     42 H1'        -0.4769   -2.1002   -1.8093 H         1 ACP         0.1310
     43 H8         -3.0031   -2.1011    0.9891 H         1 ACP         0.3565
     44 HN61       -6.3271    0.6117   -0.9836 H         1 ACP         0.4414
     45 HN62       -6.4471    1.6092   -2.4083 H         1 ACP         0.4414
     46 H2         -2.3243    1.1986   -4.4449 H         1 ACP         0.0676
     47 H47        -5.0436   -0.7722    0.3425 H         1 ACP         0.5052
@<TRIPOS>BOND
     1    1    2 2
     2    1    3 1
     3    1    4 1
     4    1    8 1
     5    4   32 1
     6    5    6 2
     7    5    7 1
     8    5    8 1
     9    5   12 1
    10    8   33 1
    11    8   34 1
    12    9   10 2
    13    9   11 1
    14    9   12 1
    15    9   13 1
    16   13   14 1
    17   14   15 1
    18   14   35 1
    19   14   36 1
    20   15   16 1
    21   15   17 1
    22   15   37 1
    23   16   21 1
    24   17   18 1
    25   17   19 1
    26   17   38 1
    27   18   39 1
    28   19   20 1
    29   19   21 1
    30   19   40 1
    31   20   41 1
    32   21   22 1
    33   21   42 1
    34   22   23 ar
    35   22   31 ar
    36   23   24 ar
    37   23   43 1
    38   24   25 ar
    39   24   47 1
    40   25   26 ar
    41   25   31 ar
    42   26   27 1
    43   26   28 ar
    44   27   44 1
    45   27   45 1
    46   28   29 ar
    47   29   30 ar
    48   29   46 1
    49   30   31 ar
@<TRIPOS>SUBSTRUCTURE
     1 ACP         1 GROUP 0 A     ****
@<TRIPOS>MOLECULE
[[5-(6-amino-7,8-dihydropurin-8-ylium-9-yl)-3,4-dihydroxy-tetrahydrofuran-2-yl]methoxy-oxido-phosphoryl]oxy-[[hydroxy(oxido)phosphoryl]methyl]phosphinate
   47    49     1     0     0
SMALL
USER_CHARGES

@<TRIPOS>ATOM
      1 PG         -0.3177   -2.0780   -6.0238 P.3       1 ACP         1.3755
      2 O1G        -1.6086   -2.8262   -5.7860 O.co2     1 ACP        -0.8970
      3 O2G         0.9653   -2.4432   -5.3135 O.co2     1 ACP        -0.8970
      4 O3G        -0.0375   -1.9771   -7.6273 O.3       1 ACP        -0.7959
      5 PB          0.6524    1.0215   -5.8571 P.3       1 ACP         1.5194
      6 O1B         0.0043    2.3406   -5.5070 O.co2     1 ACP        -0.8958
      7 O2B         1.3577    0.7965   -7.1748 O.co2     1 ACP        -0.8958
      8 C3B        -0.6402   -0.2890   -5.6954 C.3       1 ACP        -0.5612
      9 PA          2.9215    1.2532   -3.9587 P.3       1 ACP         1.6019
     10 O1A         2.4657    2.5119   -3.2532 O.co2     1 ACP        -0.9040
     11 O2A         4.0280    1.3050   -4.9899 O.co2     1 ACP        -0.9040
     12 O3A         1.6174    0.5395   -4.6346 O.3       1 ACP        -0.8156
     13 O5'         3.2883    0.1336   -2.8242 O.3       1 ACP        -0.5465
     14 C5'         2.2816   -0.2918   -1.9206 C.3       1 ACP         0.2108
     15 C4'         2.7248    0.0226   -0.4980 C.3       1 ACP         0.0552
     16 O4'         2.4697    1.4219   -0.2462 O.3       1 ACP        -0.3428
     17 C3'         1.9404   -0.7419    0.5596 C.3       1 ACP         0.0750
     18 O3'         2.7418   -0.8086    1.7389 O.3       1 ACP        -0.6066
     19 C2'         0.7477    0.1630    0.7858 C.3       1 ACP         0.1185
     20 O2'         0.1373   -0.0577    2.0407 O.3       1 ACP        -0.5858
     21 C1'         1.3733    1.5427    0.6747 C.3       1 ACP         0.3826
     22 N9          0.4520    2.5240    0.1767 N.pl3     1 ACP        -0.5729
     23 C8          0.5305    3.2394   -0.9358 C.ar      1 ACP         0.3288
     24 N7         -0.4966    4.0680   -1.1145 N.pl3     1 ACP        -0.5338
     25 C5         -1.2879    3.8664   -0.0375 C.ar      1 ACP        -0.2581
     26 C6         -2.4754    4.4084    0.3577 C.ar      1 ACP         0.7413
     27 N6         -3.0892    5.3882   -0.4495 N.pl3     1 ACP        -0.9512
     28 N1         -3.0632    4.0158    1.5092 N.ar      1 ACP        -0.7699
     29 C2         -2.4008    3.0654    2.2262 C.ar      1 ACP         0.6898
     30 N3         -1.2259    2.4663    1.9260 N.ar      1 ACP        -0.6800
     31 C4         -0.7062    2.9047    0.7757 C.ar      1 ACP         0.6129
     32 HOG3        0.0563   -2.8087   -8.1390 H         1 ACP         0.4199
     33 H3B1       -1.0137   -0.2321   -4.6669 H         1 ACP         0.0672
     34 H3B2       -1.4601    0.0083   -6.3585 H         1 ACP         0.0672
     35 H5'1        1.3500    0.2325   -2.1560 H         1 ACP         0.0277
     36 H5'2        2.1267   -1.3683   -2.0444 H         1 ACP         0.0277
     37 H4'         3.8050   -0.1388   -0.4008 H         1 ACP         0.1249
     38 H3'         1.6784   -1.7629    0.2714 H         1 ACP         0.0564
     39 HO3'        2.2232   -1.2979    2.3953 H         1 ACP         0.4511
     40 H2'        -0.0011    0.0027    0.0003 H         1 ACP         0.0716
     41 HO2'       -0.1563   -0.9855    2.0596 H         1 ACP         0.4454
     42 H1'         1.7826    1.9024    1.6451 H         1 ACP         0.1310
     43 H8          1.3437    3.1645   -1.6367 H         1 ACP         0.3565
     44 HN61       -2.6210    5.7042   -1.2748 H         1 ACP         0.4414
     45 HN62       -3.9356    5.8187   -0.1356 H         1 ACP         0.4414
     46 H2         -2.8752    2.7532    3.1495 H         1 ACP         0.0676
     47 H47        -0.6372    4.7004   -1.8900 H         1 ACP         0.5052
@<TRIPOS>BOND
     1    1    2 2
     2    1    3 1
     3    1    4 1
     4    1    8 1
     5    4   32 1
     6    5    6 2
     7    5    7 1
     8    5    8 1
     9    5   12 1
    10    8   33 1
    11    8   34 1
    12    9   10 2
    13    9   11 1
    14    9   12 1
    15    9   13 1
    16   13   14 1
    17   14   15 1
    18   14   35 1
    19   14   36 1
    20   15   16 1
    21   15   17 1
    22   15   37 1
    23   16   21 1
    24   17   18 1
    25   17   19 1
    26   17   38 1
    27   18   39 1
    28   19   20 1
    29   19   21 1
    30   19   40 1
    31   20   41 1
    32   21   22 1
    33   21   42 1
    34   22   23 ar
    35   22   31 ar
    36   23   24 ar
    37   23   43 1
    38   24   25 ar
    39   24   47 1
    40   25   26 ar
    41   25   31 ar
    42   26   27 1
    43   26   28 ar
    44   27   44 1
    45   27   45 1
    46   28   29 ar
    47   29   30 ar
    48   29   46 1
    49   30   31 ar
@<TRIPOS>SUBSTRUCTURE
     1 ACP         1 GROUP 0 A     ****
@<TRIPOS>MOLECULE
[[5-(6-amino-7,8-dihydropurin-8-ylium-9-yl)-3,4-dihydroxy-tetrahydrofuran-2-yl]methoxy-oxido-phosphoryl]oxy-[[hydroxy(oxido)phosphoryl]methyl]phosphinate
   47    49     1     0     0
SMALL
USER_CHARGES

@<TRIPOS>ATOM
      1 PG         -1.3167    0.7383   -4.8018 P.3       1 ACP         1.3755
      2 O1G        -2.3498   -0.0127   -5.6089 O.co2     1 ACP        -0.8970
      3 O2G        -1.7002    1.7782   -3.7743 O.co2     1 ACP        -0.8970
      4 O3G        -0.2753   -0.3236   -4.1326 O.3       1 ACP        -0.7959
      5 PB          1.2848    2.5738   -5.4636 P.3       1 ACP         1.5194
      6 O1B         0.7385    3.7340   -4.6649 O.co2     1 ACP        -0.8958
      7 O2B         2.1625    2.7754   -6.6775 O.co2     1 ACP        -0.8958
      8 C3B        -0.1533    1.5407   -5.9913 C.3       1 ACP        -0.5612
      9 PA          3.2331    1.6548   -3.4224 P.3       1 ACP         1.6019
     10 O1A         2.8120    2.5879   -2.3081 O.co2     1 ACP        -0.9040
     11 O2A         4.4890    1.9264   -4.2220 O.co2     1 ACP        -0.9040
     12 O3A         1.9831    1.4943   -4.4610 O.3       1 ACP        -0.8156
     13 O5'         3.2883    0.1336   -2.8242 O.3       1 ACP        -0.5465
     14 C5'         2.2816   -0.2918   -1.9206 C.3       1 ACP         0.2108
     15 C4'         2.7248    0.0226   -0.4980 C.3       1 ACP         0.0552
     16 O4'         2.4697    1.4219   -0.2462 O.3       1 ACP        -0.3428
     17 C3'         1.9404   -0.7419    0.5596 C.3       1 ACP         0.0750
     18 O3'         2.7418   -0.8086    1.7389 O.3       1 ACP        -0.6066
     19 C2'         0.7477    0.1630    0.7858 C.3       1 ACP         0.1185
     20 O2'         0.1373   -0.0577    2.0407 O.3       1 ACP        -0.5858
     21 C1'         1.3733    1.5427    0.6747 C.3       1 ACP         0.3826
     22 N9          0.4520    2.5240    0.1767 N.pl3     1 ACP        -0.5729
     23 C8         -0.8252    2.3702   -0.1405 C.ar      1 ACP         0.3288
     24 N7         -1.4086    3.4861   -0.5739 N.pl3     1 ACP        -0.5338
     25 C5         -0.4324    4.4197   -0.5299 C.ar      1 ACP        -0.2581
     26 C6         -0.4006    5.7465   -0.8439 C.ar      1 ACP         0.7413
     27 N6         -1.5714    6.3708   -1.3211 N.pl3     1 ACP        -0.9512
     28 N1          0.7370    6.4615   -0.7020 N.ar      1 ACP        -0.7699
     29 C2          1.8196    5.7785   -0.2355 C.ar      1 ACP         0.6898
     30 N3          1.8948    4.4713    0.1036 N.ar      1 ACP        -0.6800
     31 C4          0.7337    3.8311   -0.0629 C.ar      1 ACP         0.6129
     32 HOG3       -0.6290   -1.0021   -3.5188 H         1 ACP         0.4199
     33 H3B1       -0.7703    2.1740   -6.6384 H         1 ACP         0.0672
     34 H3B2        0.2593    0.7396   -6.6144 H         1 ACP         0.0672
     35 H5'1        1.3500    0.2325   -2.1560 H         1 ACP         0.0277
     36 H5'2        2.1267   -1.3683   -2.0444 H         1 ACP         0.0277
     37 H4'         3.8050   -0.1388   -0.4008 H         1 ACP         0.1249
     38 H3'         1.6784   -1.7629    0.2714 H         1 ACP         0.0564
     39 HO3'        2.2232   -1.2979    2.3953 H         1 ACP         0.4511
     40 H2'        -0.0011    0.0027    0.0003 H         1 ACP         0.0716
     41 HO2'       -0.1563   -0.9855    2.0596 H         1 ACP         0.4454
     42 H1'         1.7826    1.9024    1.6451 H         1 ACP         0.1310
     43 H8         -1.3516    1.4351   -0.0582 H         1 ACP         0.3565
     44 HN61       -2.3936    5.8204   -1.4664 H         1 ACP         0.4414
     45 HN62       -1.5348    7.3319   -1.5955 H         1 ACP         0.4414
     46 H2          2.7305    6.3553   -0.1232 H         1 ACP         0.0676
     47 H47        -2.3700    3.5931   -0.8665 H         1 ACP         0.5052
@<TRIPOS>BOND
     1    1    2 2
     2    1    3 1
     3    1    4 1
     4    1    8 1
     5    4   32 1
     6    5    6 2
     7    5    7 1
     8    5    8 1
     9    5   12 1
    10    8   33 1
    11    8   34 1
    12    9   10 2
    13    9   11 1
    14    9   12 1
    15    9   13 1
    16   13   14 1
    17   14   15 1
    18   14   35 1
    19   14   36 1
    20   15   16 1
    21   15   17 1
    22   15   37 1
    23   16   21 1
    24   17   18 1
    25   17   19 1
    26   17   38 1
    27   18   39 1
    28   19   20 1
    29   19   21 1
    30   19   40 1
    31   20   41 1
    32   21   22 1
    33   21   42 1
    34   22   23 ar
    35   22   31 ar
    36   23   24 ar
    37   23   43 1
    38   24   25 ar
    39   24   47 1
    40   25   26 ar
    41   25   31 ar
    42   26   27 1
    43   26   28 ar
    44   27   44 1
    45   27   45 1
    46   28   29 ar
    47   29   30 ar
    48   29   46 1
    49   30   31 ar
@<TRIPOS>SUBSTRUCTURE
     1 ACP         1 GROUP 0 A     ****
@<TRIPOS>MOLECULE
[[5-(6-amino-7,8-dihydropurin-8-ylium-9-yl)-3,4-dihydroxy-tetrahydrofuran-2-yl]methoxy-oxido-phosphoryl]oxy-[[hydroxy(oxido)phosphoryl]methyl]phosphinate
   47    49     1     0     0
SMALL
USER_CHARGES

@<TRIPOS>ATOM
      1 PG         -1.3885    1.1598   -5.4839 P.3       1 ACP         1.3755
      2 O1G        -2.4280    1.8664   -6.3223 O.co2     1 ACP        -0.8970
      3 O2G        -1.1169    1.5450   -4.0479 O.co2     1 ACP        -0.8970
      4 O3G        -1.6222   -0.4517   -5.5758 O.3       1 ACP        -0.7959
      5 PB          1.7881    0.5174   -5.7516 P.3       1 ACP         1.5194
      6 O1B         2.8664    0.7977   -6.7721 O.co2     1 ACP        -0.8958
      7 O2B         1.4713   -0.8833   -5.2803 O.co2     1 ACP        -0.8958
      8 C3B         0.2174    1.2495   -6.3925 C.3       1 ACP        -0.5612
      9 PA          3.2331    1.6548   -3.4224 P.3       1 ACP         1.6019
     10 O1A         2.8120    2.5879   -2.3081 O.co2     1 ACP        -0.9040
     11 O2A         4.4890    1.9264   -4.2220 O.co2     1 ACP        -0.9040
     12 O3A         1.9831    1.4943   -4.4610 O.3       1 ACP        -0.8156
     13 O5'         3.2883    0.1336   -2.8242 O.3       1 ACP        -0.5465
     14 C5'         2.2816   -0.2918   -1.9206 C.3       1 ACP         0.2108
     15 C4'         2.7248    0.0226   -0.4980 C.3       1 ACP         0.0552
     16 O4'         2.4697    1.4219   -0.2462 O.3       1 ACP        -0.3428
     17 C3'         1.9404   -0.7419    0.5596 C.3       1 ACP         0.0750
     18 O3'         2.7418   -0.8086    1.7389 O.3       1 ACP        -0.6066
     19 C2'         0.7477    0.1630    0.7858 C.3       1 ACP         0.1185
     20 O2'         0.1373   -0.0577    2.0407 O.3       1 ACP        -0.5858
     21 C1'         1.3733    1.5427    0.6747 C.3       1 ACP         0.3826
     22 N9          0.4520    2.5240    0.1767 N.pl3     1 ACP        -0.5729
     23 C8         -0.5899    2.3466   -0.6224 C.ar      1 ACP         0.3288
     24 N7         -1.2514    3.4689   -0.8989 N.pl3     1 ACP        -0.5338
     25 C5         -0.5826    4.4323   -0.2272 C.ar      1 ACP        -0.2581
     26 C6         -0.7636    5.7789   -0.1086 C.ar      1 ACP         0.7413
     27 N6         -1.8382    6.3927   -0.7843 N.pl3     1 ACP        -0.9512
     28 N1          0.0741    6.5233    0.6461 N.ar      1 ACP        -0.7699
     29 C2          1.0845    5.8486    1.2626 C.ar      1 ACP         0.6898
     30 N3          1.3516    4.5236    1.2116 N.ar      1 ACP        -0.6800
     31 C4          0.4827    3.8546    0.4481 C.ar      1 ACP         0.6129
     32 HOG3       -2.4804   -0.8179   -5.2730 H         1 ACP         0.4199
     33 H3B1        0.4146    2.3150   -6.5551 H         1 ACP         0.0672
     34 H3B2        0.0474    0.7944   -7.3745 H         1 ACP         0.0672
     35 H5'1        1.3500    0.2325   -2.1560 H         1 ACP         0.0277
     36 H5'2        2.1267   -1.3683   -2.0444 H         1 ACP         0.0277
     37 H4'         3.8050   -0.1388   -0.4008 H         1 ACP         0.1249
     38 H3'         1.6784   -1.7629    0.2714 H         1 ACP         0.0564
     39 HO3'        2.2232   -1.2979    2.3953 H         1 ACP         0.4511
     40 H2'        -0.0011    0.0027    0.0003 H         1 ACP         0.0716
     41 HO2'       -0.6141    0.5574    2.1082 H         1 ACP         0.4454
     42 H1'         1.7826    1.9024    1.6451 H         1 ACP         0.1310
     43 H8         -0.8833    1.3888   -1.0158 H         1 ACP         0.3565
     44 HN61       -2.4225    5.8385   -1.3773 H         1 ACP         0.4414
     45 HN62       -1.9421    7.3862   -0.7348 H         1 ACP         0.4414
     46 H2          1.7546    6.4491    1.8670 H         1 ACP         0.0676
     47 H47        -2.0705    3.5612   -1.4834 H         1 ACP         0.5052
@<TRIPOS>BOND
     1    1    2 2
     2    1    3 1
     3    1    4 1
     4    1    8 1
     5    4   32 1
     6    5    6 2
     7    5    7 1
     8    5    8 1
     9    5   12 1
    10    8   33 1
    11    8   34 1
    12    9   10 2
    13    9   11 1
    14    9   12 1
    15    9   13 1
    16   13   14 1
    17   14   15 1
    18   14   35 1
    19   14   36 1
    20   15   16 1
    21   15   17 1
    22   15   37 1
    23   16   21 1
    24   17   18 1
    25   17   19 1
    26   17   38 1
    27   18   39 1
    28   19   20 1
    29   19   21 1
    30   19   40 1
    31   20   41 1
    32   21   22 1
    33   21   42 1
    34   22   23 ar
    35   22   31 ar
    36   23   24 ar
    37   23   43 1
    38   24   25 ar
    39   24   47 1
    40   25   26 ar
    41   25   31 ar
    42   26   27 1
    43   26   28 ar
    44   27   44 1
    45   27   45 1
    46   28   29 ar
    47   29   30 ar
    48   29   46 1
    49   30   31 ar
@<TRIPOS>SUBSTRUCTURE
     1 ACP         1 GROUP 0 A     ****
@<TRIPOS>MOLECULE
[[5-(6-amino-7,8-dihydropurin-8-ylium-9-yl)-3,4-dihydroxy-tetrahydrofuran-2-yl]methoxy-oxido-phosphoryl]oxy-[[hydroxy(oxido)phosphoryl]methyl]phosphinate
   47    49     1     0     0
SMALL
USER_CHARGES

@<TRIPOS>ATOM
      1 PG          5.9291   -2.4310    0.0070 P.3       1 ACP         1.3755
      2 O1G         6.8475   -3.5046    0.5426 O.co2     1 ACP        -0.8970
      3 O2G         4.6253   -2.7598   -0.6832 O.co2     1 ACP        -0.8970
      4 O3G         5.6593   -1.3194    1.1695 O.3       1 ACP        -0.7959
      5 PB          6.2091    0.0726   -2.0493 P.3       1 ACP         1.5194
      6 O1B         7.3183    0.6671   -2.8853 O.co2     1 ACP        -0.8958
      7 O2B         5.4315    0.8916   -1.0449 O.co2     1 ACP        -0.8958
      8 C3B         6.9141   -1.3777   -1.1473 C.3       1 ACP        -0.5612
      9 PA          3.9534   -0.2075   -3.9573 P.3       1 ACP         1.6019
     10 O1A         3.2055   -1.4082   -4.4944 O.co2     1 ACP        -0.9040
     11 O2A         4.5033    0.8426   -4.8984 O.co2     1 ACP        -0.9040
     12 O3A         5.1710   -0.7403   -3.0083 O.3       1 ACP        -0.8156
     13 O5'         3.0198    0.5138   -2.8245 O.3       1 ACP        -0.5465
     14 C5'         2.2816   -0.2918   -1.9206 C.3       1 ACP         0.2108
     15 C4'         2.7248    0.0226   -0.4980 C.3       1 ACP         0.0552
     16 O4'         2.4697    1.4219   -0.2462 O.3       1 ACP        -0.3428
     17 C3'         1.9404   -0.7419    0.5596 C.3       1 ACP         0.0750
     18 O3'         2.7418   -0.8086    1.7389 O.3       1 ACP        -0.6066
     19 C2'         0.7477    0.1630    0.7858 C.3       1 ACP         0.1185
     20 O2'         0.1373   -0.0577    2.0407 O.3       1 ACP        -0.5858
     21 C1'         1.3733    1.5427    0.6747 C.3       1 ACP         0.3826
     22 N9          0.4520    2.5240    0.1767 N.pl3     1 ACP        -0.5729
     23 C8         -0.2172    2.5216   -0.9668 C.ar      1 ACP         0.3288
     24 N7         -1.0011    3.5855   -1.1321 N.pl3     1 ACP        -0.5338
     25 C5         -0.8184    4.3200   -0.0123 C.ar      1 ACP        -0.2581
     26 C6         -1.3349    5.5079    0.4144 C.ar      1 ACP         0.7413
     27 N6         -2.2567    6.1930   -0.4036 N.pl3     1 ACP        -0.9512
     28 N1         -0.9716    6.0291    1.6069 N.ar      1 ACP        -0.7699
     29 C2         -0.0765    5.3009    2.3312 C.ar      1 ACP         0.6898
     30 N3          0.4933    4.1191    2.0023 N.ar      1 ACP        -0.6800
     31 C4          0.0865    3.6675    0.8123 C.ar      1 ACP         0.6129
     32 HOG3        5.2425   -1.6112    2.0081 H         1 ACP         0.4199
     33 H3B1        7.3124   -2.0551   -1.9108 H         1 ACP         0.0672
     34 H3B2        7.7651   -0.9950   -0.5730 H         1 ACP         0.0672
     35 H5'1        1.2153   -0.0781   -2.0454 H         1 ACP         0.0277
     36 H5'2        2.4645   -1.3454   -2.1547 H         1 ACP         0.0277
     37 H4'         3.8050   -0.1388   -0.4008 H         1 ACP         0.1249
     38 H3'         1.6784   -1.7629    0.2714 H         1 ACP         0.0564
     39 HO3'        2.2232   -1.2979    2.3953 H         1 ACP         0.4511
     40 H2'        -0.0011    0.0027    0.0003 H         1 ACP         0.0716
     41 HO2'       -0.6141    0.5574    2.1082 H         1 ACP         0.4454
     42 H1'         1.7826    1.9024    1.6451 H         1 ACP         0.1310
     43 H8         -0.1423    1.7373   -1.6999 H         1 ACP         0.3565
     44 HN61       -2.4811    5.8206   -1.3042 H         1 ACP         0.4414
     45 HN62       -2.5986    7.0863   -0.1113 H         1 ACP         0.4414
     46 H2          0.2128    5.7222    3.2871 H         1 ACP         0.0676
     47 H47        -1.5947    3.7835   -1.9255 H         1 ACP         0.5052
@<TRIPOS>BOND
     1    1    2 2
     2    1    3 1
     3    1    4 1
     4    1    8 1
     5    4   32 1
     6    5    6 2
     7    5    7 1
     8    5    8 1
     9    5   12 1
    10    8   33 1
    11    8   34 1
    12    9   10 2
    13    9   11 1
    14    9   12 1
    15    9   13 1
    16   13   14 1
    17   14   15 1
    18   14   35 1
    19   14   36 1
    20   15   16 1
    21   15   17 1
    22   15   37 1
    23   16   21 1
    24   17   18 1
    25   17   19 1
    26   17   38 1
    27   18   39 1
    28   19   20 1
    29   19   21 1
    30   19   40 1
    31   20   41 1
    32   21   22 1
    33   21   42 1
    34   22   23 ar
    35   22   31 ar
    36   23   24 ar
    37   23   43 1
    38   24   25 ar
    39   24   47 1
    40   25   26 ar
    41   25   31 ar
    42   26   27 1
    43   26   28 ar
    44   27   44 1
    45   27   45 1
    46   28   29 ar
    47   29   30 ar
    48   29   46 1
    49   30   31 ar
@<TRIPOS>SUBSTRUCTURE
     1 ACP         1 GROUP 0 A     ****
@<TRIPOS>MOLECULE
[[5-(6-amino-7,8-dihydropurin-8-ylium-9-yl)-3,4-dihydroxy-tetrahydrofuran-2-yl]methoxy-oxido-phosphoryl]oxy-[[hydroxy(oxido)phosphoryl]methyl]phosphinate
   47    49     1     0     0
SMALL
USER_CHARGES

@<TRIPOS>ATOM
      1 PG         -2.0972   -1.8427   -2.7754 P.3       1 ACP         1.3755
      2 O1G        -3.3109   -2.2546   -1.9754 O.co2     1 ACP        -0.8970
      3 O2G        -2.1585   -0.7609   -3.8290 O.co2     1 ACP        -0.8970
      4 O3G        -0.8570   -1.5387   -1.7608 O.3       1 ACP        -0.7959
      5 PB          0.0763   -3.3491   -4.6681 P.3       1 ACP         1.5194
      6 O1B        -0.2180   -2.4312   -5.8315 O.co2     1 ACP        -0.8958
      7 O2B         0.4990   -4.7868   -4.8647 O.co2     1 ACP        -0.8958
      8 C3B        -1.4180   -3.3598   -3.5813 C.3       1 ACP        -0.5612
      9 PA          2.6179   -2.0499   -3.8561 P.3       1 ACP         1.6019
     10 O1A         2.5535   -0.8721   -4.8040 O.co2     1 ACP        -0.9040
     11 O2A         3.5312   -3.2219   -4.1438 O.co2     1 ACP        -0.9040
     12 O3A         1.1027   -2.6171   -3.6342 O.3       1 ACP        -0.8156
     13 O5'         2.9202   -1.4821   -2.3524 O.3       1 ACP        -0.5465
     14 C5'         2.2816   -0.2918   -1.9206 C.3       1 ACP         0.2108
     15 C4'         2.7248    0.0226   -0.4980 C.3       1 ACP         0.0552
     16 O4'         2.4697    1.4219   -0.2462 O.3       1 ACP        -0.3428
     17 C3'         1.9404   -0.7419    0.5596 C.3       1 ACP         0.0750
     18 O3'         2.7418   -0.8086    1.7389 O.3       1 ACP        -0.6066
     19 C2'         0.7477    0.1630    0.7858 C.3       1 ACP         0.1185
     20 O2'         0.1373   -0.0577    2.0407 O.3       1 ACP        -0.5858
     21 C1'         1.3733    1.5427    0.6747 C.3       1 ACP         0.3826
     22 N9          0.4520    2.5240    0.1767 N.pl3     1 ACP        -0.5729
     23 C8          0.5305    3.2394   -0.9358 C.ar      1 ACP         0.3288
     24 N7         -0.4966    4.0680   -1.1145 N.pl3     1 ACP        -0.5338
     25 C5         -1.2879    3.8664   -0.0375 C.ar      1 ACP        -0.2581
     26 C6         -2.4754    4.4084    0.3577 C.ar      1 ACP         0.7413
     27 N6         -3.0892    5.3882   -0.4495 N.pl3     1 ACP        -0.9512
     28 N1         -3.0632    4.0158    1.5092 N.ar      1 ACP        -0.7699
     29 C2         -2.4008    3.0654    2.2262 C.ar      1 ACP         0.6898
     30 N3         -1.2259    2.4663    1.9260 N.ar      1 ACP        -0.6800
     31 C4         -0.7062    2.9047    0.7757 C.ar      1 ACP         0.6129
     32 HOG3       -0.9654   -0.8334   -1.0878 H         1 ACP         0.4199
     33 H3B1       -2.2352   -3.7766   -4.1805 H         1 ACP         0.0672
     34 H3B2       -1.2048   -4.0728   -2.7772 H         1 ACP         0.0672
     35 H5'1        2.5581    0.5235   -2.5966 H         1 ACP         0.0277
     36 H5'2        1.1974   -0.4370   -1.9607 H         1 ACP         0.0277
     37 H4'         3.8050   -0.1388   -0.4008 H         1 ACP         0.1249
     38 H3'         1.6784   -1.7629    0.2714 H         1 ACP         0.0564
     39 HO3'        2.2232   -1.2979    2.3953 H         1 ACP         0.4511
     40 H2'        -0.0011    0.0027    0.0003 H         1 ACP         0.0716
     41 HO2'       -0.6141    0.5574    2.1082 H         1 ACP         0.4454
     42 H1'         1.7826    1.9024    1.6451 H         1 ACP         0.1310
     43 H8          1.3437    3.1645   -1.6367 H         1 ACP         0.3565
     44 HN61       -2.6210    5.7042   -1.2748 H         1 ACP         0.4414
     45 HN62       -3.9356    5.8187   -0.1356 H         1 ACP         0.4414
     46 H2         -2.8752    2.7532    3.1495 H         1 ACP         0.0676
     47 H47        -0.6372    4.7004   -1.8900 H         1 ACP         0.5052
@<TRIPOS>BOND
     1    1    2 2
     2    1    3 1
     3    1    4 1
     4    1    8 1
     5    4   32 1
     6    5    6 2
     7    5    7 1
     8    5    8 1
     9    5   12 1
    10    8   33 1
    11    8   34 1
    12    9   10 2
    13    9   11 1
    14    9   12 1
    15    9   13 1
    16   13   14 1
    17   14   15 1
    18   14   35 1
    19   14   36 1
    20   15   16 1
    21   15   17 1
    22   15   37 1
    23   16   21 1
    24   17   18 1
    25   17   19 1
    26   17   38 1
    27   18   39 1
    28   19   20 1
    29   19   21 1
    30   19   40 1
    31   20   41 1
    32   21   22 1
    33   21   42 1
    34   22   23 ar
    35   22   31 ar
    36   23   24 ar
    37   23   43 1
    38   24   25 ar
    39   24   47 1
    40   25   26 ar
    41   25   31 ar
    42   26   27 1
    43   26   28 ar
    44   27   44 1
    45   27   45 1
    46   28   29 ar
    47   29   30 ar
    48   29   46 1
    49   30   31 ar
@<TRIPOS>SUBSTRUCTURE
     1 ACP         1 GROUP 0 A     ****
@<TRIPOS>MOLECULE
[[5-(6-amino-7,8-dihydropurin-8-ylium-9-yl)-3,4-dihydroxy-tetrahydrofuran-2-yl]methoxy-oxido-phosphoryl]oxy-[[hydroxy(oxido)phosphoryl]methyl]phosphinate
   47    49     1     0     0
SMALL
USER_CHARGES

@<TRIPOS>ATOM
      1 PG          2.8049   -3.2798    5.2260 P.3       1 ACP         1.3755
      2 O1G         2.0460   -2.9808    3.9542 O.co2     1 ACP        -0.8970
      3 O2G         4.1234   -2.6158    5.5500 O.co2     1 ACP        -0.8970
      4 O3G         1.8002   -3.1367    6.5028 O.3       1 ACP        -0.7959
      5 PB          1.6940   -6.3345    5.3251 P.3       1 ACP         1.5194
      6 O1B         0.8574   -6.0493    6.5505 O.co2     1 ACP        -0.8958
      7 O2B         2.2988   -7.6945    5.0629 O.co2     1 ACP        -0.8958
      8 C3B         3.0737   -5.1058    5.3002 C.3       1 ACP        -0.5612
      9 PA         -0.5394   -6.2504    3.3727 P.3       1 ACP         1.6019
     10 O1A        -1.6208   -5.7868    4.3241 O.co2     1 ACP        -0.9040
     11 O2A        -0.4652   -7.6975    2.9361 O.co2     1 ACP        -0.9040
     12 O3A         0.9101   -5.8215    3.9908 O.3       1 ACP        -0.8156
     13 O5'        -0.5697   -5.2855    2.0524 O.3       1 ACP        -0.5465
     14 C5'        -0.7840   -3.8935    2.2172 C.3       1 ACP         0.2108
     15 C4'        -0.0724   -3.1466    1.1027 C.3       1 ACP         0.0552
     16 O4'        -0.8674   -3.1929   -0.0945 O.3       1 ACP        -0.3428
     17 C3'         0.1338   -1.6715    1.4027 C.3       1 ACP         0.0750
     18 O3'         1.2893   -1.4445    2.1808 O.3       1 ACP        -0.6066
     19 C2'         0.2158   -1.0724    0.0128 C.3       1 ACP         0.1185
     20 O2'         1.5141   -1.2448   -0.5513 O.3       1 ACP        -0.5858
     21 C1'        -0.7897   -1.9176   -0.7583 C.3       1 ACP         0.3826
     22 N9         -2.1040   -1.3333   -0.7704 N.pl3     1 ACP        -0.5729
     23 C8         -3.0822   -1.4850    0.1102 C.ar      1 ACP         0.3288
     24 N7         -4.1844   -0.7999   -0.1888 N.pl3     1 ACP        -0.5338
     25 C5         -3.8875   -0.1651   -1.3445 C.ar      1 ACP        -0.2581
     26 C6         -4.5941    0.6799   -2.1486 C.ar      1 ACP         0.7413
     27 N6         -5.9138    1.0274   -1.7939 N.pl3     1 ACP        -0.9512
     28 N1         -4.0421    1.1824   -3.2748 N.ar      1 ACP        -0.7699
     29 C2         -2.7637    0.7937   -3.5405 C.ar      1 ACP         0.6898
     30 N3         -1.9788   -0.0343   -2.8139 N.ar      1 ACP        -0.6800
     31 C4         -2.5915   -0.4902   -1.7174 C.ar      1 ACP         0.6129
     32 HOG3        1.3700   -2.2702    6.6647 H         1 ACP         0.4199
     33 H3B1        3.6689   -5.2882    6.2019 H         1 ACP         0.0672
     34 H3B2        3.6977   -5.3657    4.4380 H         1 ACP         0.0672
     35 H5'1       -1.8599   -3.6946    2.1849 H         1 ACP         0.0277
     36 H5'2       -0.3934   -3.5881    3.1930 H         1 ACP         0.0277
     37 H4'         0.8886   -3.6447    0.8779 H         1 ACP         0.1249
     38 H3'        -0.7373   -1.2359    1.9870 H         1 ACP         0.0564
     39 HO3'        1.1626   -1.9325    3.0084 H         1 ACP         0.4511
     40 H2'        -0.0384   -0.0310    0.0096 H         1 ACP         0.0716
     41 HO2'        1.6843   -2.2021   -0.5965 H         1 ACP         0.4454
     42 H1'        -0.4769   -2.1002   -1.8093 H         1 ACP         0.1310
     43 H8         -3.0031   -2.1011    0.9891 H         1 ACP         0.3565
     44 HN61       -6.3271    0.6117   -0.9836 H         1 ACP         0.4414
     45 HN62       -6.4471    1.6092   -2.4083 H         1 ACP         0.4414
     46 H2         -2.3243    1.1986   -4.4449 H         1 ACP         0.0676
     47 H47        -5.0436   -0.7722    0.3425 H         1 ACP         0.5052
@<TRIPOS>BOND
     1    1    2 2
     2    1    3 1
     3    1    4 1
     4    1    8 1
     5    4   32 1
     6    5    6 2
     7    5    7 1
     8    5    8 1
     9    5   12 1
    10    8   33 1
    11    8   34 1
    12    9   10 2
    13    9   11 1
    14    9   12 1
    15    9   13 1
    16   13   14 1
    17   14   15 1
    18   14   35 1
    19   14   36 1
    20   15   16 1
    21   15   17 1
    22   15   37 1
    23   16   21 1
    24   17   18 1
    25   17   19 1
    26   17   38 1
    27   18   39 1
    28   19   20 1
    29   19   21 1
    30   19   40 1
    31   20   41 1
    32   21   22 1
    33   21   42 1
    34   22   23 ar
    35   22   31 ar
    36   23   24 ar
    37   23   43 1
    38   24   25 ar
    39   24   47 1
    40   25   26 ar
    41   25   31 ar
    42   26   27 1
    43   26   28 ar
    44   27   44 1
    45   27   45 1
    46   28   29 ar
    47   29   30 ar
    48   29   46 1
    49   30   31 ar
@<TRIPOS>SUBSTRUCTURE
     1 ACP         1 GROUP 0 A     ****
@<TRIPOS>MOLECULE
[[5-(6-amino-7,8-dihydropurin-8-ylium-9-yl)-3,4-dihydroxy-tetrahydrofuran-2-yl]methoxy-oxido-phosphoryl]oxy-[[hydroxy(oxido)phosphoryl]methyl]phosphinate
   47    49     1     0     0
SMALL
USER_CHARGES

@<TRIPOS>ATOM
      1 PG         -4.1064   -7.6046    5.1894 P.3       1 ACP         1.3755
      2 O1G        -4.8241   -7.2061    6.4579 O.co2     1 ACP        -0.8970
      3 O2G        -2.6114   -7.4501    5.0297 O.co2     1 ACP        -0.8970
      4 O3G        -4.5399   -9.1213    4.7752 O.3       1 ACP        -0.7959
      5 PB         -4.3646   -6.8772    2.0304 P.3       1 ACP         1.5194
      6 O1B        -5.2578   -5.9912    1.1938 O.co2     1 ACP        -0.8958
      7 O2B        -4.2076   -8.3542    1.7511 O.co2     1 ACP        -0.8958
      8 C3B        -4.9068   -6.7053    3.7884 C.3       1 ACP        -0.5612
      9 PA         -1.6235   -6.1545    1.1527 P.3       1 ACP         1.6019
     10 O1A        -2.0102   -5.3284   -0.0547 O.co2     1 ACP        -0.9040
     11 O2A        -1.0989   -7.5643    0.9863 O.co2     1 ACP        -0.9040
     12 O3A        -2.8926   -6.1925    2.1797 O.3       1 ACP        -0.8156
     13 O5'        -0.5697   -5.2855    2.0524 O.3       1 ACP        -0.5465
     14 C5'        -0.7840   -3.8935    2.2172 C.3       1 ACP         0.2108
     15 C4'        -0.0724   -3.1466    1.1027 C.3       1 ACP         0.0552
     16 O4'        -0.8674   -3.1929   -0.0945 O.3       1 ACP        -0.3428
     17 C3'         0.1338   -1.6715    1.4027 C.3       1 ACP         0.0750
     18 O3'         1.2893   -1.4445    2.1808 O.3       1 ACP        -0.6066
     19 C2'         0.2158   -1.0724    0.0128 C.3       1 ACP         0.1185
     20 O2'         1.5141   -1.2448   -0.5513 O.3       1 ACP        -0.5858
     21 C1'        -0.7897   -1.9176   -0.7583 C.3       1 ACP         0.3826
     22 N9         -2.1040   -1.3333   -0.7704 N.pl3     1 ACP        -0.5729
     23 C8         -3.2304   -1.8262   -0.2767 C.ar      1 ACP         0.3288
     24 N7         -4.2847   -1.0309   -0.4481 N.pl3     1 ACP        -0.5338
     25 C5         -3.7951    0.0479   -1.0985 C.ar      1 ACP        -0.2581
     26 C6         -4.3691    1.1983   -1.5536 C.ar      1 ACP         0.7413
     27 N6         -5.7501    1.4047   -1.3573 N.pl3     1 ACP        -0.9512
     28 N1         -3.6289    2.1345   -2.1869 N.ar      1 ACP        -0.7699
     29 C2         -2.3041    1.8525   -2.3333 C.ar      1 ACP         0.6898
     30 N3         -1.6387    0.7492   -1.9218 N.ar      1 ACP        -0.6800
     31 C4         -2.4348   -0.1293   -1.3053 C.ar      1 ACP         0.6129
     32 HOG3       -4.3566   -9.8491    5.4067 H         1 ACP         0.4199
     33 H3B1       -4.8367   -5.6396    4.0327 H         1 ACP         0.0672
     34 H3B2       -5.9682   -6.9766    3.8079 H         1 ACP         0.0672
     35 H5'1       -1.8599   -3.6946    2.1849 H         1 ACP         0.0277
     36 H5'2       -0.3934   -3.5881    3.1930 H         1 ACP         0.0277
     37 H4'         0.8886   -3.6447    0.8779 H         1 ACP         0.1249
     38 H3'        -0.7373   -1.2359    1.9870 H         1 ACP         0.0564
     39 HO3'        1.3408   -0.4870    2.3219 H         1 ACP         0.4511
     40 H2'        -0.0384   -0.0310    0.0096 H         1 ACP         0.0716
     41 HO2'        1.4998   -0.8412   -1.4369 H         1 ACP         0.4454
     42 H1'        -0.4769   -2.1002   -1.8093 H         1 ACP         0.1310
     43 H8         -3.2974   -2.7789    0.2194 H         1 ACP         0.3565
     44 HN61       -6.2956    0.6838   -0.9296 H         1 ACP         0.4414
     45 HN62       -6.1788    2.2266   -1.7327 H         1 ACP         0.4414
     46 H2         -1.7135    2.6057   -2.8421 H         1 ACP         0.0676
     47 H47        -5.2337   -1.2102   -0.1507 H         1 ACP         0.5052
@<TRIPOS>BOND
     1    1    2 2
     2    1    3 1
     3    1    4 1
     4    1    8 1
     5    4   32 1
     6    5    6 2
     7    5    7 1
     8    5    8 1
     9    5   12 1
    10    8   33 1
    11    8   34 1
    12    9   10 2
    13    9   11 1
    14    9   12 1
    15    9   13 1
    16   13   14 1
    17   14   15 1
    18   14   35 1
    19   14   36 1
    20   15   16 1
    21   15   17 1
    22   15   37 1
    23   16   21 1
    24   17   18 1
    25   17   19 1
    26   17   38 1
    27   18   39 1
    28   19   20 1
    29   19   21 1
    30   19   40 1
    31   20   41 1
    32   21   22 1
    33   21   42 1
    34   22   23 ar
    35   22   31 ar
    36   23   24 ar
    37   23   43 1
    38   24   25 ar
    39   24   47 1
    40   25   26 ar
    41   25   31 ar
    42   26   27 1
    43   26   28 ar
    44   27   44 1
    45   27   45 1
    46   28   29 ar
    47   29   30 ar
    48   29   46 1
    49   30   31 ar
@<TRIPOS>SUBSTRUCTURE
     1 ACP         1 GROUP 0 A     ****
@<TRIPOS>MOLECULE
[[5-(6-amino-7,8-dihydropurin-8-ylium-9-yl)-3,4-dihydroxy-tetrahydrofuran-2-yl]methoxy-oxido-phosphoryl]oxy-[[hydroxy(oxido)phosphoryl]methyl]phosphinate
   47    49     1     0     0
SMALL
USER_CHARGES

@<TRIPOS>ATOM
      1 PG         -0.7696   -1.5853   -5.2862 P.3       1 ACP         1.3755
      2 O1G         0.0739   -1.8441   -4.0597 O.co2     1 ACP        -0.8970
      3 O2G        -1.5890   -2.6728   -5.9420 O.co2     1 ACP        -0.8970
      4 O3G        -1.7120   -0.2792   -5.0299 O.3       1 ACP        -0.7959
      5 PB          1.2661    0.7115   -6.3614 P.3       1 ACP         1.5194
      6 O1B         0.2513    1.8037   -6.1166 O.co2     1 ACP        -0.8958
      7 O2B         2.2826    0.7934   -7.4769 O.co2     1 ACP        -0.8958
      8 C3B         0.3342   -0.8686   -6.5824 C.3       1 ACP        -0.5612
      9 PA          2.9215    1.2532   -3.9587 P.3       1 ACP         1.6019
     10 O1A         2.0230    2.2933   -3.3258 O.co2     1 ACP        -0.9040
     11 O2A         4.1836    1.6642   -4.6857 O.co2     1 ACP        -0.9040
     12 O3A         2.0199    0.3363   -4.9653 O.3       1 ACP        -0.8156
     13 O5'         3.2883    0.1336   -2.8242 O.3       1 ACP        -0.5465
     14 C5'         2.2816   -0.2918   -1.9206 C.3       1 ACP         0.2108
     15 C4'         2.7248    0.0226   -0.4980 C.3       1 ACP         0.0552
     16 O4'         2.4697    1.4219   -0.2462 O.3       1 ACP        -0.3428
     17 C3'         1.9404   -0.7419    0.5596 C.3       1 ACP         0.0750
     18 O3'         2.7418   -0.8086    1.7389 O.3       1 ACP        -0.6066
     19 C2'         0.7477    0.1630    0.7858 C.3       1 ACP         0.1185
     20 O2'         0.1373   -0.0577    2.0407 O.3       1 ACP        -0.5858
     21 C1'         1.3733    1.5427    0.6747 C.3       1 ACP         0.3826
     22 N9          0.4520    2.5240    0.1767 N.pl3     1 ACP        -0.5729
     23 C8          0.5305    3.2394   -0.9358 C.ar      1 ACP         0.3288
     24 N7         -0.4966    4.0680   -1.1145 N.pl3     1 ACP        -0.5338
     25 C5         -1.2879    3.8664   -0.0375 C.ar      1 ACP        -0.2581
     26 C6         -2.4754    4.4084    0.3577 C.ar      1 ACP         0.7413
     27 N6         -3.0892    5.3882   -0.4495 N.pl3     1 ACP        -0.9512
     28 N1         -3.0632    4.0158    1.5092 N.ar      1 ACP        -0.7699
     29 C2         -2.4008    3.0654    2.2262 C.ar      1 ACP         0.6898
     30 N3         -1.2259    2.4663    1.9260 N.ar      1 ACP        -0.6800
     31 C4         -0.7062    2.9047    0.7757 C.ar      1 ACP         0.6129
     32 HOG3       -2.3509   -0.3021   -4.2859 H         1 ACP         0.4199
     33 H3B1       -0.2892   -0.7398   -7.4742 H         1 ACP         0.0672
     34 H3B2        1.0831   -1.6341   -6.8142 H         1 ACP         0.0672
     35 H5'1        1.3500    0.2325   -2.1560 H         1 ACP         0.0277
     36 H5'2        2.1267   -1.3683   -2.0444 H         1 ACP         0.0277
     37 H4'         3.8050   -0.1388   -0.4008 H         1 ACP         0.1249
     38 H3'         1.6784   -1.7629    0.2714 H         1 ACP         0.0564
     39 HO3'        2.2232   -1.2979    2.3953 H         1 ACP         0.4511
     40 H2'        -0.0011    0.0027    0.0003 H         1 ACP         0.0716
     41 HO2'       -0.1563   -0.9855    2.0596 H         1 ACP         0.4454
     42 H1'         1.7826    1.9024    1.6451 H         1 ACP         0.1310
     43 H8          1.3437    3.1645   -1.6367 H         1 ACP         0.3565
     44 HN61       -3.9824    5.7507   -0.1831 H         1 ACP         0.4414
     45 HN62       -2.6676    5.6358   -1.3220 H         1 ACP         0.4414
     46 H2         -2.8752    2.7532    3.1495 H         1 ACP         0.0676
     47 H47        -0.6372    4.7004   -1.8900 H         1 ACP         0.5052
@<TRIPOS>BOND
     1    1    2 2
     2    1    3 1
     3    1    4 1
     4    1    8 1
     5    4   32 1
     6    5    6 2
     7    5    7 1
     8    5    8 1
     9    5   12 1
    10    8   33 1
    11    8   34 1
    12    9   10 2
    13    9   11 1
    14    9   12 1
    15    9   13 1
    16   13   14 1
    17   14   15 1
    18   14   35 1
    19   14   36 1
    20   15   16 1
    21   15   17 1
    22   15   37 1
    23   16   21 1
    24   17   18 1
    25   17   19 1
    26   17   38 1
    27   18   39 1
    28   19   20 1
    29   19   21 1
    30   19   40 1
    31   20   41 1
    32   21   22 1
    33   21   42 1
    34   22   23 ar
    35   22   31 ar
    36   23   24 ar
    37   23   43 1
    38   24   25 ar
    39   24   47 1
    40   25   26 ar
    41   25   31 ar
    42   26   27 1
    43   26   28 ar
    44   27   44 1
    45   27   45 1
    46   28   29 ar
    47   29   30 ar
    48   29   46 1
    49   30   31 ar
@<TRIPOS>SUBSTRUCTURE
     1 ACP         1 GROUP 0 A     ****
@<TRIPOS>MOLECULE
[[5-(6-amino-7,8-dihydropurin-8-ylium-9-yl)-3,4-dihydroxy-tetrahydrofuran-2-yl]methoxy-oxido-phosphoryl]oxy-[[hydroxy(oxido)phosphoryl]methyl]phosphinate
   47    49     1     0     0
SMALL
USER_CHARGES

@<TRIPOS>ATOM
      1 PG          6.4306   -1.4749    1.2752 P.3       1 ACP         1.3755
      2 O1G         4.9557   -1.7129    1.0496 O.co2     1 ACP        -0.8970
      3 O2G         6.9806   -1.0560    2.6192 O.co2     1 ACP        -0.8970
      4 O3G         7.2770   -2.7537    0.7202 O.3       1 ACP        -0.7959
      5 PB          6.8723   -0.4823   -1.7899 P.3       1 ACP         1.5194
      6 O1B         7.6900   -1.7071   -2.1273 O.co2     1 ACP        -0.8958
      7 O2B         7.1179    0.8554   -2.4490 O.co2     1 ACP        -0.8958
      8 C3B         6.9909   -0.2249    0.0360 C.3       1 ACP        -0.5612
      9 PA          4.3690   -1.3831   -3.1048 P.3       1 ACP         1.6019
     10 O1A         4.8188   -2.7849   -3.4546 O.co2     1 ACP        -0.9040
     11 O2A         4.3121   -0.3045   -4.1650 O.co2     1 ACP        -0.9040
     12 O3A         5.2839   -0.8420   -1.8649 O.3       1 ACP        -0.8156
     13 O5'         2.9202   -1.4821   -2.3524 O.3       1 ACP        -0.5465
     14 C5'         2.2816   -0.2918   -1.9206 C.3       1 ACP         0.2108
     15 C4'         2.7248    0.0226   -0.4980 C.3       1 ACP         0.0552
     16 O4'         2.4697    1.4219   -0.2462 O.3       1 ACP        -0.3428
     17 C3'         1.9404   -0.7419    0.5596 C.3       1 ACP         0.0750
     18 O3'         2.7418   -0.8086    1.7389 O.3       1 ACP        -0.6066
     19 C2'         0.7477    0.1630    0.7858 C.3       1 ACP         0.1185
     20 O2'         0.1373   -0.0577    2.0407 O.3       1 ACP        -0.5858
     21 C1'         1.3733    1.5427    0.6747 C.3       1 ACP         0.3826
     22 N9          0.4520    2.5240    0.1767 N.pl3     1 ACP        -0.5729
     23 C8         -0.2172    2.5216   -0.9668 C.ar      1 ACP         0.3288
     24 N7         -1.0011    3.5855   -1.1321 N.pl3     1 ACP        -0.5338
     25 C5         -0.8184    4.3200   -0.0123 C.ar      1 ACP        -0.2581
     26 C6         -1.3349    5.5079    0.4144 C.ar      1 ACP         0.7413
     27 N6         -2.2567    6.1930   -0.4036 N.pl3     1 ACP        -0.9512
     28 N1         -0.9716    6.0291    1.6069 N.ar      1 ACP        -0.7699
     29 C2         -0.0765    5.3009    2.3312 C.ar      1 ACP         0.6898
     30 N3          0.4933    4.1191    2.0023 N.ar      1 ACP        -0.6800
     31 C4          0.0865    3.6675    0.8123 C.ar      1 ACP         0.6129
     32 HOG3        7.1021   -3.6359    1.1117 H         1 ACP         0.4199
     33 H3B1        8.0472   -0.0331    0.2550 H         1 ACP         0.0672
     34 H3B2        6.4394    0.6974    0.2501 H         1 ACP         0.0672
     35 H5'1        2.5581    0.5235   -2.5966 H         1 ACP         0.0277
     36 H5'2        1.1974   -0.4370   -1.9607 H         1 ACP         0.0277
     37 H4'         3.8050   -0.1388   -0.4008 H         1 ACP         0.1249
     38 H3'         1.6784   -1.7629    0.2714 H         1 ACP         0.0564
     39 HO3'        2.2232   -1.2979    2.3953 H         1 ACP         0.4511
     40 H2'        -0.0011    0.0027    0.0003 H         1 ACP         0.0716
     41 HO2'       -0.6141    0.5574    2.1082 H         1 ACP         0.4454
     42 H1'         1.7826    1.9024    1.6451 H         1 ACP         0.1310
     43 H8         -0.1423    1.7373   -1.6999 H         1 ACP         0.3565
     44 HN61       -2.4811    5.8206   -1.3042 H         1 ACP         0.4414
     45 HN62       -2.5986    7.0863   -0.1113 H         1 ACP         0.4414
     46 H2          0.2128    5.7222    3.2871 H         1 ACP         0.0676
     47 H47        -1.5947    3.7835   -1.9255 H         1 ACP         0.5052
@<TRIPOS>BOND
     1    1    2 2
     2    1    3 1
     3    1    4 1
     4    1    8 1
     5    4   32 1
     6    5    6 2
     7    5    7 1
     8    5    8 1
     9    5   12 1
    10    8   33 1
    11    8   34 1
    12    9   10 2
    13    9   11 1
    14    9   12 1
    15    9   13 1
    16   13   14 1
    17   14   15 1
    18   14   35 1
    19   14   36 1
    20   15   16 1
    21   15   17 1
    22   15   37 1
    23   16   21 1
    24   17   18 1
    25   17   19 1
    26   17   38 1
    27   18   39 1
    28   19   20 1
    29   19   21 1
    30   19   40 1
    31   20   41 1
    32   21   22 1
    33   21   42 1
    34   22   23 ar
    35   22   31 ar
    36   23   24 ar
    37   23   43 1
    38   24   25 ar
    39   24   47 1
    40   25   26 ar
    41   25   31 ar
    42   26   27 1
    43   26   28 ar
    44   27   44 1
    45   27   45 1
    46   28   29 ar
    47   29   30 ar
    48   29   46 1
    49   30   31 ar
@<TRIPOS>SUBSTRUCTURE
     1 ACP         1 GROUP 0 A     ****
@<TRIPOS>MOLECULE
[[5-(6-amino-7,8-dihydropurin-8-ylium-9-yl)-3,4-dihydroxy-tetrahydrofuran-2-yl]methoxy-oxido-phosphoryl]oxy-[[hydroxy(oxido)phosphoryl]methyl]phosphinate
   47    49     1     0     0
SMALL
USER_CHARGES

@<TRIPOS>ATOM
      1 PG         -2.0972   -1.8427   -2.7754 P.3       1 ACP         1.3755
      2 O1G        -3.3109   -2.2546   -1.9754 O.co2     1 ACP        -0.8970
      3 O2G        -2.1585   -0.7609   -3.8290 O.co2     1 ACP        -0.8970
      4 O3G        -0.8570   -1.5387   -1.7608 O.3       1 ACP        -0.7959
      5 PB          0.0763   -3.3491   -4.6681 P.3       1 ACP         1.5194
      6 O1B        -0.2180   -2.4312   -5.8315 O.co2     1 ACP        -0.8958
      7 O2B         0.4990   -4.7868   -4.8647 O.co2     1 ACP        -0.8958
      8 C3B        -1.4180   -3.3598   -3.5813 C.3       1 ACP        -0.5612
      9 PA          2.6179   -2.0499   -3.8561 P.3       1 ACP         1.6019
     10 O1A         2.5535   -0.8721   -4.8040 O.co2     1 ACP        -0.9040
     11 O2A         3.5312   -3.2219   -4.1438 O.co2     1 ACP        -0.9040
     12 O3A         1.1027   -2.6171   -3.6342 O.3       1 ACP        -0.8156
     13 O5'         2.9202   -1.4821   -2.3524 O.3       1 ACP        -0.5465
     14 C5'         2.2816   -0.2918   -1.9206 C.3       1 ACP         0.2108
     15 C4'         2.7248    0.0226   -0.4980 C.3       1 ACP         0.0552
     16 O4'         2.4697    1.4219   -0.2462 O.3       1 ACP        -0.3428
     17 C3'         1.9404   -0.7419    0.5596 C.3       1 ACP         0.0750
     18 O3'         2.7418   -0.8086    1.7389 O.3       1 ACP        -0.6066
     19 C2'         0.7477    0.1630    0.7858 C.3       1 ACP         0.1185
     20 O2'         0.1373   -0.0577    2.0407 O.3       1 ACP        -0.5858
     21 C1'         1.3733    1.5427    0.6747 C.3       1 ACP         0.3826
     22 N9          0.4520    2.5240    0.1767 N.pl3     1 ACP        -0.5729
     23 C8         -0.8602    2.5861    0.3496 C.ar      1 ACP         0.3288
     24 N7         -1.4308    3.6326   -0.2443 N.pl3     1 ACP        -0.5338
     25 C5         -0.4080    4.2856   -0.8394 C.ar      1 ACP        -0.2581
     26 C6         -0.3432    5.4196   -1.5943 C.ar      1 ACP         0.7413
     27 N6         -1.5276    6.1333   -1.8702 N.pl3     1 ACP        -0.9512
     28 N1          0.8395    5.8603   -2.0764 N.ar      1 ACP        -0.7699
     29 C2          1.9319    5.1095   -1.7617 C.ar      1 ACP         0.6898
     30 N3          1.9773    3.9761   -1.0249 N.ar      1 ACP        -0.6800
     31 C4          0.7724    3.6031   -0.5836 C.ar      1 ACP         0.6129
     32 HOG3       -0.9654   -0.8334   -1.0878 H         1 ACP         0.4199
     33 H3B1       -2.2352   -3.7766   -4.1805 H         1 ACP         0.0672
     34 H3B2       -1.2048   -4.0728   -2.7772 H         1 ACP         0.0672
     35 H5'1        2.5581    0.5235   -2.5966 H         1 ACP         0.0277
     36 H5'2        1.1974   -0.4370   -1.9607 H         1 ACP         0.0277
     37 H4'         3.8050   -0.1388   -0.4008 H         1 ACP         0.1249
     38 H3'         1.6784   -1.7629    0.2714 H         1 ACP         0.0564
     39 HO3'        2.2232   -1.2979    2.3953 H         1 ACP         0.4511
     40 H2'        -0.0011    0.0027    0.0003 H         1 ACP         0.0716
     41 HO2'       -0.1563   -0.9855    2.0596 H         1 ACP         0.4454
     42 H1'         1.7826    1.9024    1.6451 H         1 ACP         0.1310
     43 H8         -1.4217    1.8638    0.9164 H         1 ACP         0.3565
     44 HN61       -2.4023    5.7711   -1.5477 H         1 ACP         0.4414
     45 HN62       -1.4857    6.9379   -2.4627 H         1 ACP         0.4414
     46 H2          2.8789    5.4660   -2.1503 H         1 ACP         0.0676
     47 H47        -2.4129    3.8706   -0.2402 H         1 ACP         0.5052
@<TRIPOS>BOND
     1    1    2 2
     2    1    3 1
     3    1    4 1
     4    1    8 1
     5    4   32 1
     6    5    6 2
     7    5    7 1
     8    5    8 1
     9    5   12 1
    10    8   33 1
    11    8   34 1
    12    9   10 2
    13    9   11 1
    14    9   12 1
    15    9   13 1
    16   13   14 1
    17   14   15 1
    18   14   35 1
    19   14   36 1
    20   15   16 1
    21   15   17 1
    22   15   37 1
    23   16   21 1
    24   17   18 1
    25   17   19 1
    26   17   38 1
    27   18   39 1
    28   19   20 1
    29   19   21 1
    30   19   40 1
    31   20   41 1
    32   21   22 1
    33   21   42 1
    34   22   23 ar
    35   22   31 ar
    36   23   24 ar
    37   23   43 1
    38   24   25 ar
    39   24   47 1
    40   25   26 ar
    41   25   31 ar
    42   26   27 1
    43   26   28 ar
    44   27   44 1
    45   27   45 1
    46   28   29 ar
    47   29   30 ar
    48   29   46 1
    49   30   31 ar
@<TRIPOS>SUBSTRUCTURE
     1 ACP         1 GROUP 0 A     ****
@<TRIPOS>MOLECULE
[[5-(6-amino-7,8-dihydropurin-8-ylium-9-yl)-3,4-dihydroxy-tetrahydrofuran-2-yl]methoxy-oxido-phosphoryl]oxy-[[hydroxy(oxido)phosphoryl]methyl]phosphinate
   47    49     1     0     0
SMALL
USER_CHARGES

@<TRIPOS>ATOM
      1 PG          3.6952    3.9172   -3.5318 P.3       1 ACP         1.3755
      2 O1G         4.3502    5.1611   -2.9782 O.co2     1 ACP        -0.8970
      3 O2G         4.2777    3.1540   -4.6990 O.co2     1 ACP        -0.8970
      4 O3G         3.3813    2.8814   -2.3118 O.3       1 ACP        -0.7959
      5 PB          0.7567    3.1398   -4.6878 P.3       1 ACP         1.5194
      6 O1B         1.3388    2.6490   -5.9928 O.co2     1 ACP        -0.8958
      7 O2B        -0.6175    3.7633   -4.6040 O.co2     1 ACP        -0.8958
      8 C3B         1.9537    4.3504   -3.9698 C.3       1 ACP        -0.5612
      9 PA          0.3066    0.4590   -3.4972 P.3       1 ACP         1.6019
     10 O1A         0.9873   -0.3565   -4.5748 O.co2     1 ACP        -0.9040
     11 O2A        -1.2033    0.5338   -3.4250 O.co2     1 ACP        -0.9040
     12 O3A         0.8980    1.9803   -3.5504 O.3       1 ACP        -0.8156
     13 O5'         0.8970   -0.0132   -2.0468 O.3       1 ACP        -0.5465
     14 C5'         2.2816   -0.2918   -1.9206 C.3       1 ACP         0.2108
     15 C4'         2.7248    0.0226   -0.4980 C.3       1 ACP         0.0552
     16 O4'         2.4697    1.4219   -0.2462 O.3       1 ACP        -0.3428
     17 C3'         1.9404   -0.7419    0.5596 C.3       1 ACP         0.0750
     18 O3'         2.7418   -0.8086    1.7389 O.3       1 ACP        -0.6066
     19 C2'         0.7477    0.1630    0.7858 C.3       1 ACP         0.1185
     20 O2'         0.1373   -0.0577    2.0407 O.3       1 ACP        -0.5858
     21 C1'         1.3733    1.5427    0.6747 C.3       1 ACP         0.3826
     22 N9          0.4520    2.5240    0.1767 N.pl3     1 ACP        -0.5729
     23 C8          0.5305    3.2394   -0.9358 C.ar      1 ACP         0.3288
     24 N7         -0.4966    4.0680   -1.1145 N.pl3     1 ACP        -0.5338
     25 C5         -1.2879    3.8664   -0.0375 C.ar      1 ACP        -0.2581
     26 C6         -2.4754    4.4084    0.3577 C.ar      1 ACP         0.7413
     27 N6         -3.0892    5.3882   -0.4495 N.pl3     1 ACP        -0.9512
     28 N1         -3.0632    4.0158    1.5092 N.ar      1 ACP        -0.7699
     29 C2         -2.4008    3.0654    2.2262 C.ar      1 ACP         0.6898
     30 N3         -1.2259    2.4663    1.9260 N.ar      1 ACP        -0.6800
     31 C4         -0.7062    2.9047    0.7757 C.ar      1 ACP         0.6129
     32 HOG3        4.1320    2.5515   -1.7734 H         1 ACP         0.4199
     33 H3B1        2.0176    5.1827   -4.6795 H         1 ACP         0.0672
     34 H3B2        1.4872    4.7346   -3.0558 H         1 ACP         0.0672
     35 H5'1        2.4525   -1.3484   -2.1500 H         1 ACP         0.0277
     36 H5'2        2.8335    0.3232   -2.6384 H         1 ACP         0.0277
     37 H4'         3.8050   -0.1388   -0.4008 H         1 ACP         0.1249
     38 H3'         1.6784   -1.7629    0.2714 H         1 ACP         0.0564
     39 HO3'        2.2232   -1.2979    2.3953 H         1 ACP         0.4511
     40 H2'        -0.0011    0.0027    0.0003 H         1 ACP         0.0716
     41 HO2'       -0.1563   -0.9855    2.0596 H         1 ACP         0.4454
     42 H1'         1.7826    1.9024    1.6451 H         1 ACP         0.1310
     43 H8          1.3437    3.1645   -1.6367 H         1 ACP         0.3565
     44 HN61       -2.6210    5.7042   -1.2748 H         1 ACP         0.4414
     45 HN62       -3.9356    5.8187   -0.1356 H         1 ACP         0.4414
     46 H2         -2.8752    2.7532    3.1495 H         1 ACP         0.0676
     47 H47        -0.6372    4.7004   -1.8900 H         1 ACP         0.5052
@<TRIPOS>BOND
     1    1    2 2
     2    1    3 1
     3    1    4 1
     4    1    8 1
     5    4   32 1
     6    5    6 2
     7    5    7 1
     8    5    8 1
     9    5   12 1
    10    8   33 1
    11    8   34 1
    12    9   10 2
    13    9   11 1
    14    9   12 1
    15    9   13 1
    16   13   14 1
    17   14   15 1
    18   14   35 1
    19   14   36 1
    20   15   16 1
    21   15   17 1
    22   15   37 1
    23   16   21 1
    24   17   18 1
    25   17   19 1
    26   17   38 1
    27   18   39 1
    28   19   20 1
    29   19   21 1
    30   19   40 1
    31   20   41 1
    32   21   22 1
    33   21   42 1
    34   22   23 ar
    35   22   31 ar
    36   23   24 ar
    37   23   43 1
    38   24   25 ar
    39   24   47 1
    40   25   26 ar
    41   25   31 ar
    42   26   27 1
    43   26   28 ar
    44   27   44 1
    45   27   45 1
    46   28   29 ar
    47   29   30 ar
    48   29   46 1
    49   30   31 ar
@<TRIPOS>SUBSTRUCTURE
     1 ACP         1 GROUP 0 A     ****
@<TRIPOS>MOLECULE
[[5-(6-amino-7,8-dihydropurin-8-ylium-9-yl)-3,4-dihydroxy-tetrahydrofuran-2-yl]methoxy-oxido-phosphoryl]oxy-[[hydroxy(oxido)phosphoryl]methyl]phosphinate
   47    49     1     0     0
SMALL
USER_CHARGES

@<TRIPOS>ATOM
      1 PG         -2.0769    0.9731   -2.9200 P.3       1 ACP         1.3755
      2 O1G        -3.2639    1.6774   -3.5347 O.co2     1 ACP        -0.8970
      3 O2G        -0.6602    1.2424   -3.3722 O.co2     1 ACP        -0.8970
      4 O3G        -2.1573    1.0933   -1.2955 O.3       1 ACP        -0.7959
      5 PB         -1.1771   -2.1166   -2.4516 P.3       1 ACP         1.5194
      6 O1B        -1.7678   -3.4734   -2.7561 O.co2     1 ACP        -0.8958
      7 O2B        -0.7716   -1.7112   -1.0532 O.co2     1 ACP        -0.8958
      8 C3B        -2.3674   -0.8451   -3.0686 C.3       1 ACP        -0.5612
      9 PA          1.5993   -2.3027   -3.4829 P.3       1 ACP         1.6019
     10 O1A         2.3380   -1.5710   -4.5823 O.co2     1 ACP        -0.9040
     11 O2A         1.6167   -3.8146   -3.4164 O.co2     1 ACP        -0.9040
     12 O3A         0.0447   -1.8028   -3.4846 O.3       1 ACP        -0.8156
     13 O5'         2.0818   -1.6902   -2.0452 O.3       1 ACP        -0.5465
     14 C5'         2.2816   -0.2918   -1.9206 C.3       1 ACP         0.2108
     15 C4'         2.7248    0.0226   -0.4980 C.3       1 ACP         0.0552
     16 O4'         2.4697    1.4219   -0.2462 O.3       1 ACP        -0.3428
     17 C3'         1.9404   -0.7419    0.5596 C.3       1 ACP         0.0750
     18 O3'         2.7418   -0.8086    1.7389 O.3       1 ACP        -0.6066
     19 C2'         0.7477    0.1630    0.7858 C.3       1 ACP         0.1185
     20 O2'         0.1373   -0.0577    2.0407 O.3       1 ACP        -0.5858
     21 C1'         1.3733    1.5427    0.6747 C.3       1 ACP         0.3826
     22 N9          0.4520    2.5240    0.1767 N.pl3     1 ACP        -0.5729
     23 C8          0.5305    3.2394   -0.9358 C.ar      1 ACP         0.3288
     24 N7         -0.4966    4.0680   -1.1145 N.pl3     1 ACP        -0.5338
     25 C5         -1.2879    3.8664   -0.0375 C.ar      1 ACP        -0.2581
     26 C6         -2.4754    4.4084    0.3577 C.ar      1 ACP         0.7413
     27 N6         -3.0892    5.3882   -0.4495 N.pl3     1 ACP        -0.9512
     28 N1         -3.0632    4.0158    1.5092 N.ar      1 ACP        -0.7699
     29 C2         -2.4008    3.0654    2.2262 C.ar      1 ACP         0.6898
     30 N3         -1.2259    2.4663    1.9260 N.ar      1 ACP        -0.6800
     31 C4         -0.7062    2.9047    0.7757 C.ar      1 ACP         0.6129
     32 HOG3       -2.1557    1.9873   -0.8919 H         1 ACP         0.4199
     33 H3B1       -2.5081   -1.0433   -4.1370 H         1 ACP         0.0672
     34 H3B2       -3.3203   -1.0518   -2.5689 H         1 ACP         0.0672
     35 H5'1        3.0467    0.0218   -2.6379 H         1 ACP         0.0277
     36 H5'2        1.3432    0.2220   -2.1518 H         1 ACP         0.0277
     37 H4'         3.8050   -0.1388   -0.4008 H         1 ACP         0.1249
     38 H3'         1.6784   -1.7629    0.2714 H         1 ACP         0.0564
     39 HO3'        2.2232   -1.2979    2.3953 H         1 ACP         0.4511
     40 H2'        -0.0011    0.0027    0.0003 H         1 ACP         0.0716
     41 HO2'       -0.1563   -0.9855    2.0596 H         1 ACP         0.4454
     42 H1'         1.7826    1.9024    1.6451 H         1 ACP         0.1310
     43 H8          1.3437    3.1645   -1.6367 H         1 ACP         0.3565
     44 HN61       -3.9824    5.7507   -0.1831 H         1 ACP         0.4414
     45 HN62       -2.6676    5.6358   -1.3220 H         1 ACP         0.4414
     46 H2         -2.8752    2.7532    3.1495 H         1 ACP         0.0676
     47 H47        -0.6372    4.7004   -1.8900 H         1 ACP         0.5052
@<TRIPOS>BOND
     1    1    2 2
     2    1    3 1
     3    1    4 1
     4    1    8 1
     5    4   32 1
     6    5    6 2
     7    5    7 1
     8    5    8 1
     9    5   12 1
    10    8   33 1
    11    8   34 1
    12    9   10 2
    13    9   11 1
    14    9   12 1
    15    9   13 1
    16   13   14 1
    17   14   15 1
    18   14   35 1
    19   14   36 1
    20   15   16 1
    21   15   17 1
    22   15   37 1
    23   16   21 1
    24   17   18 1
    25   17   19 1
    26   17   38 1
    27   18   39 1
    28   19   20 1
    29   19   21 1
    30   19   40 1
    31   20   41 1
    32   21   22 1
    33   21   42 1
    34   22   23 ar
    35   22   31 ar
    36   23   24 ar
    37   23   43 1
    38   24   25 ar
    39   24   47 1
    40   25   26 ar
    41   25   31 ar
    42   26   27 1
    43   26   28 ar
    44   27   44 1
    45   27   45 1
    46   28   29 ar
    47   29   30 ar
    48   29   46 1
    49   30   31 ar
@<TRIPOS>SUBSTRUCTURE
     1 ACP         1 GROUP 0 A     ****
@<TRIPOS>MOLECULE
[[5-(6-amino-7,8-dihydropurin-8-ylium-9-yl)-3,4-dihydroxy-tetrahydrofuran-2-yl]methoxy-oxido-phosphoryl]oxy-[[hydroxy(oxido)phosphoryl]methyl]phosphinate
   47    49     1     0     0
SMALL
USER_CHARGES

@<TRIPOS>ATOM
      1 PG         -0.1621    0.6811    4.9584 P.3       1 ACP         1.3755
      2 O1G        -0.2668    0.0933    3.5704 O.co2     1 ACP        -0.8970
      3 O2G         0.9518    1.6248    5.3493 O.co2     1 ACP        -0.8970
      4 O3G        -1.5959    1.3340    5.3798 O.3       1 ACP        -0.7959
      5 PB         -1.5209   -1.9440    6.3140 P.3       1 ACP         1.5194
      6 O1B        -2.7670   -1.1750    6.6865 O.co2     1 ACP        -0.8958
      7 O2B        -1.0079   -3.0963    7.1466 O.co2     1 ACP        -0.8958
      8 C3B        -0.1435   -0.7221    6.1595 C.3       1 ACP        -0.5612
      9 PA         -2.6797   -3.3327    3.9613 P.3       1 ACP         1.6019
     10 O1A        -4.0096   -2.6111    3.9367 O.co2     1 ACP        -0.9040
     11 O2A        -2.5773   -4.7423    4.5027 O.co2     1 ACP        -0.9040
     12 O3A        -1.5989   -2.3960    4.7495 O.3       1 ACP        -0.8156
     13 O5'        -2.0403   -3.2809    2.4568 O.3       1 ACP        -0.5465
     14 C5'        -0.7840   -3.8935    2.2172 C.3       1 ACP         0.2108
     15 C4'        -0.0724   -3.1466    1.1027 C.3       1 ACP         0.0552
     16 O4'        -0.8674   -3.1929   -0.0945 O.3       1 ACP        -0.3428
     17 C3'         0.1338   -1.6715    1.4027 C.3       1 ACP         0.0750
     18 O3'         1.2893   -1.4445    2.1808 O.3       1 ACP        -0.6066
     19 C2'         0.2158   -1.0724    0.0128 C.3       1 ACP         0.1185
     20 O2'         1.5141   -1.2448   -0.5513 O.3       1 ACP        -0.5858
     21 C1'        -0.7897   -1.9176   -0.7583 C.3       1 ACP         0.3826
     22 N9         -2.1040   -1.3333   -0.7704 N.pl3     1 ACP        -0.5729
     23 C8         -3.2304   -1.8262   -0.2767 C.ar      1 ACP         0.3288
     24 N7         -4.2847   -1.0309   -0.4481 N.pl3     1 ACP        -0.5338
     25 C5         -3.7951    0.0479   -1.0985 C.ar      1 ACP        -0.2581
     26 C6         -4.3691    1.1983   -1.5536 C.ar      1 ACP         0.7413
     27 N6         -5.7501    1.4047   -1.3573 N.pl3     1 ACP        -0.9512
     28 N1         -3.6289    2.1345   -2.1869 N.ar      1 ACP        -0.7699
     29 C2         -2.3041    1.8525   -2.3333 C.ar      1 ACP         0.6898
     30 N3         -1.6387    0.7492   -1.9218 N.ar      1 ACP        -0.6800
     31 C4         -2.4348   -0.1293   -1.3053 C.ar      1 ACP         0.6129
     32 HOG3       -1.9608    2.0578    4.8274 H         1 ACP         0.4199
     33 H3B1       -0.0149   -0.2717    7.1500 H         1 ACP         0.0672
     34 H3B2        0.7588   -1.3056    5.9455 H         1 ACP         0.0672
     35 H5'1       -0.1929   -3.8610    3.1379 H         1 ACP         0.0277
     36 H5'2       -0.9476   -4.9382    1.9344 H         1 ACP         0.0277
     37 H4'         0.8886   -3.6447    0.8779 H         1 ACP         0.1249
     38 H3'        -0.7373   -1.2359    1.9870 H         1 ACP         0.0564
     39 HO3'        1.1626   -1.9325    3.0084 H         1 ACP         0.4511
     40 H2'        -0.0384   -0.0310    0.0096 H         1 ACP         0.0716
     41 HO2'        2.1463   -0.7958    0.0370 H         1 ACP         0.4454
     42 H1'        -0.4769   -2.1002   -1.8093 H         1 ACP         0.1310
     43 H8         -3.2974   -2.7789    0.2194 H         1 ACP         0.3565
     44 HN61       -6.2956    0.6838   -0.9296 H         1 ACP         0.4414
     45 HN62       -6.1788    2.2266   -1.7327 H         1 ACP         0.4414
     46 H2         -1.7135    2.6057   -2.8421 H         1 ACP         0.0676
     47 H47        -5.2337   -1.2102   -0.1507 H         1 ACP         0.5052
@<TRIPOS>BOND
     1    1    2 2
     2    1    3 1
     3    1    4 1
     4    1    8 1
     5    4   32 1
     6    5    6 2
     7    5    7 1
     8    5    8 1
     9    5   12 1
    10    8   33 1
    11    8   34 1
    12    9   10 2
    13    9   11 1
    14    9   12 1
    15    9   13 1
    16   13   14 1
    17   14   15 1
    18   14   35 1
    19   14   36 1
    20   15   16 1
    21   15   17 1
    22   15   37 1
    23   16   21 1
    24   17   18 1
    25   17   19 1
    26   17   38 1
    27   18   39 1
    28   19   20 1
    29   19   21 1
    30   19   40 1
    31   20   41 1
    32   21   22 1
    33   21   42 1
    34   22   23 ar
    35   22   31 ar
    36   23   24 ar
    37   23   43 1
    38   24   25 ar
    39   24   47 1
    40   25   26 ar
    41   25   31 ar
    42   26   27 1
    43   26   28 ar
    44   27   44 1
    45   27   45 1
    46   28   29 ar
    47   29   30 ar
    48   29   46 1
    49   30   31 ar
@<TRIPOS>SUBSTRUCTURE
     1 ACP         1 GROUP 0 A     ****
@<TRIPOS>MOLECULE
[[5-(6-amino-7,8-dihydropurin-8-ylium-9-yl)-3,4-dihydroxy-tetrahydrofuran-2-yl]methoxy-oxido-phosphoryl]oxy-[[hydroxy(oxido)phosphoryl]methyl]phosphinate
   47    49     1     0     0
SMALL
USER_CHARGES

@<TRIPOS>ATOM
      1 PG          1.0063   -4.9557   -2.7319 P.3       1 ACP         1.3755
      2 O1G         1.3627   -6.3708   -3.1235 O.co2     1 ACP        -0.8970
      3 O2G         1.4614   -4.3443   -1.4268 O.co2     1 ACP        -0.8970
      4 O3G         1.3733   -3.9454   -3.9585 O.3       1 ACP        -0.7959
      5 PB         -1.9759   -5.8323   -1.7763 P.3       1 ACP         1.5194
      6 O1B        -1.7263   -7.2783   -2.1361 O.co2     1 ACP        -0.8958
      7 O2B        -3.3483   -5.2060   -1.8677 O.co2     1 ACP        -0.8958
      8 C3B        -0.8333   -4.8032   -2.8008 C.3       1 ACP        -0.5612
      9 PA         -1.6235   -6.1545    1.1527 P.3       1 ACP         1.6019
     10 O1A        -1.1627   -7.5958    1.1424 O.co2     1 ACP        -0.9040
     11 O2A        -3.0389   -5.8005    1.5548 O.co2     1 ACP        -0.9040
     12 O3A        -1.3259   -5.5072   -0.3169 O.3       1 ACP        -0.8156
     13 O5'        -0.5697   -5.2855    2.0524 O.3       1 ACP        -0.5465
     14 C5'        -0.7840   -3.8935    2.2172 C.3       1 ACP         0.2108
     15 C4'        -0.0724   -3.1466    1.1027 C.3       1 ACP         0.0552
     16 O4'        -0.8674   -3.1929   -0.0945 O.3       1 ACP        -0.3428
     17 C3'         0.1338   -1.6715    1.4027 C.3       1 ACP         0.0750
     18 O3'         1.2893   -1.4445    2.1808 O.3       1 ACP        -0.6066
     19 C2'         0.2158   -1.0724    0.0128 C.3       1 ACP         0.1185
     20 O2'         1.5141   -1.2448   -0.5513 O.3       1 ACP        -0.5858
     21 C1'        -0.7897   -1.9176   -0.7583 C.3       1 ACP         0.3826
     22 N9         -2.1040   -1.3333   -0.7704 N.pl3     1 ACP        -0.5729
     23 C8         -3.0822   -1.4850    0.1102 C.ar      1 ACP         0.3288
     24 N7         -4.1844   -0.7999   -0.1888 N.pl3     1 ACP        -0.5338
     25 C5         -3.8875   -0.1651   -1.3445 C.ar      1 ACP        -0.2581
     26 C6         -4.5941    0.6799   -2.1486 C.ar      1 ACP         0.7413
     27 N6         -5.9138    1.0274   -1.7939 N.pl3     1 ACP        -0.9512
     28 N1         -4.0421    1.1824   -3.2748 N.ar      1 ACP        -0.7699
     29 C2         -2.7637    0.7937   -3.5405 C.ar      1 ACP         0.6898
     30 N3         -1.9788   -0.0343   -2.8139 N.ar      1 ACP        -0.6800
     31 C4         -2.5915   -0.4902   -1.7174 C.ar      1 ACP         0.6129
     32 HOG3        2.3052   -3.8953   -4.2605 H         1 ACP         0.4199
     33 H3B1       -1.1129   -4.9752   -3.8461 H         1 ACP         0.0672
     34 H3B2       -1.0700   -3.7595   -2.5659 H         1 ACP         0.0672
     35 H5'1       -1.8599   -3.6946    2.1849 H         1 ACP         0.0277
     36 H5'2       -0.3934   -3.5881    3.1930 H         1 ACP         0.0277
     37 H4'         0.8886   -3.6447    0.8779 H         1 ACP         0.1249
     38 H3'        -0.7373   -1.2359    1.9870 H         1 ACP         0.0564
     39 HO3'        1.3408   -0.4870    2.3219 H         1 ACP         0.4511
     40 H2'        -0.0384   -0.0310    0.0096 H         1 ACP         0.0716
     41 HO2'        1.4998   -0.8412   -1.4369 H         1 ACP         0.4454
     42 H1'        -0.4769   -2.1002   -1.8093 H         1 ACP         0.1310
     43 H8         -3.0031   -2.1011    0.9891 H         1 ACP         0.3565
     44 HN61       -6.3271    0.6117   -0.9836 H         1 ACP         0.4414
     45 HN62       -6.4471    1.6092   -2.4083 H         1 ACP         0.4414
     46 H2         -2.3243    1.1986   -4.4449 H         1 ACP         0.0676
     47 H47        -5.0436   -0.7722    0.3425 H         1 ACP         0.5052
@<TRIPOS>BOND
     1    1    2 2
     2    1    3 1
     3    1    4 1
     4    1    8 1
     5    4   32 1
     6    5    6 2
     7    5    7 1
     8    5    8 1
     9    5   12 1
    10    8   33 1
    11    8   34 1
    12    9   10 2
    13    9   11 1
    14    9   12 1
    15    9   13 1
    16   13   14 1
    17   14   15 1
    18   14   35 1
    19   14   36 1
    20   15   16 1
    21   15   17 1
    22   15   37 1
    23   16   21 1
    24   17   18 1
    25   17   19 1
    26   17   38 1
    27   18   39 1
    28   19   20 1
    29   19   21 1
    30   19   40 1
    31   20   41 1
    32   21   22 1
    33   21   42 1
    34   22   23 ar
    35   22   31 ar
    36   23   24 ar
    37   23   43 1
    38   24   25 ar
    39   24   47 1
    40   25   26 ar
    41   25   31 ar
    42   26   27 1
    43   26   28 ar
    44   27   44 1
    45   27   45 1
    46   28   29 ar
    47   29   30 ar
    48   29   46 1
    49   30   31 ar
@<TRIPOS>SUBSTRUCTURE
     1 ACP         1 GROUP 0 A     ****
@<TRIPOS>MOLECULE
[[5-(6-amino-7,8-dihydropurin-8-ylium-9-yl)-3,4-dihydroxy-tetrahydrofuran-2-yl]methoxy-oxido-phosphoryl]oxy-[[hydroxy(oxido)phosphoryl]methyl]phosphinate
   47    49     1     0     0
SMALL
USER_CHARGES

@<TRIPOS>ATOM
      1 PG         -6.1964   -5.9184    0.2023 P.3       1 ACP         1.3755
      2 O1G        -7.2879   -4.9428   -0.1713 O.co2     1 ACP        -0.8970
      3 O2G        -6.0062   -6.4074    1.6197 O.co2     1 ACP        -0.8970
      4 O3G        -6.2438   -7.1976   -0.8084 O.3       1 ACP        -0.7959
      5 PB         -2.9617   -6.0393   -0.1104 P.3       1 ACP         1.5194
      6 O1B        -1.8969   -5.1404   -0.6943 O.co2     1 ACP        -0.8958
      7 O2B        -3.1296   -7.4763   -0.5474 O.co2     1 ACP        -0.8958
      8 C3B        -4.5887   -5.1979   -0.3532 C.3       1 ACP        -0.5612
      9 PA         -1.7138   -6.3356    2.5657 P.3       1 ACP         1.6019
     10 O1A        -1.2348   -7.7404    2.2712 O.co2     1 ACP        -0.9040
     11 O2A        -2.1612   -5.9499    3.9591 O.co2     1 ACP        -0.9040
     12 O3A        -2.9111   -5.9684    1.5177 O.3       1 ACP        -0.8156
     13 O5'        -0.5697   -5.2855    2.0524 O.3       1 ACP        -0.5465
     14 C5'        -0.7840   -3.8935    2.2172 C.3       1 ACP         0.2108
     15 C4'        -0.0724   -3.1466    1.1027 C.3       1 ACP         0.0552
     16 O4'        -0.8674   -3.1929   -0.0945 O.3       1 ACP        -0.3428
     17 C3'         0.1338   -1.6715    1.4027 C.3       1 ACP         0.0750
     18 O3'         1.2893   -1.4445    2.1808 O.3       1 ACP        -0.6066
     19 C2'         0.2158   -1.0724    0.0128 C.3       1 ACP         0.1185
     20 O2'         1.5141   -1.2448   -0.5513 O.3       1 ACP        -0.5858
     21 C1'        -0.7897   -1.9176   -0.7583 C.3       1 ACP         0.3826
     22 N9         -2.1040   -1.3333   -0.7704 N.pl3     1 ACP        -0.5729
     23 C8         -2.8739   -1.0133    0.2593 C.ar      1 ACP         0.3288
     24 N7         -4.0439   -0.4818   -0.0902 N.pl3     1 ACP        -0.5338
     25 C5         -4.0184   -0.4615   -1.4414 C.ar      1 ACP        -0.2581
     26 C6         -4.9120   -0.0399   -2.3814 C.ar      1 ACP         0.7413
     27 N6         -6.1459    0.5018   -1.9665 N.pl3     1 ACP        -0.9512
     28 N1         -4.6250   -0.1374   -3.6981 N.ar      1 ACP        -0.7699
     29 C2         -3.4114   -0.6729   -4.0088 C.ar      1 ACP         0.6898
     30 N3         -2.4579   -1.1190   -3.1595 N.ar      1 ACP        -0.6800
     31 C4         -2.8124   -0.9904   -1.8776 C.ar      1 ACP         0.6129
     32 HOG3       -7.0623   -7.7371   -0.8420 H         1 ACP         0.4199
     33 H3B1       -4.5094   -4.2206    0.1359 H         1 ACP         0.0672
     34 H3B2       -4.6814   -5.0186   -1.4301 H         1 ACP         0.0672
     35 H5'1       -1.8599   -3.6946    2.1849 H         1 ACP         0.0277
     36 H5'2       -0.3934   -3.5881    3.1930 H         1 ACP         0.0277
     37 H4'         0.8886   -3.6447    0.8779 H         1 ACP         0.1249
     38 H3'        -0.7373   -1.2359    1.9870 H         1 ACP         0.0564
     39 HO3'        1.3408   -0.4870    2.3219 H         1 ACP         0.4511
     40 H2'        -0.0384   -0.0310    0.0096 H         1 ACP         0.0716
     41 HO2'        2.1463   -0.7958    0.0370 H         1 ACP         0.4454
     42 H1'        -0.4769   -2.1002   -1.8093 H         1 ACP         0.1310
     43 H8         -2.5891   -1.1636    1.2862 H         1 ACP         0.3565
     44 HN61       -6.3657    0.5248   -0.9911 H         1 ACP         0.4414
     45 HN62       -6.8193    0.7669   -2.6568 H         1 ACP         0.4414
     46 H2         -3.1848   -0.7497   -5.0660 H         1 ACP         0.0676
     47 H47        -4.7768   -0.1684    0.5309 H         1 ACP         0.5052
@<TRIPOS>BOND
     1    1    2 2
     2    1    3 1
     3    1    4 1
     4    1    8 1
     5    4   32 1
     6    5    6 2
     7    5    7 1
     8    5    8 1
     9    5   12 1
    10    8   33 1
    11    8   34 1
    12    9   10 2
    13    9   11 1
    14    9   12 1
    15    9   13 1
    16   13   14 1
    17   14   15 1
    18   14   35 1
    19   14   36 1
    20   15   16 1
    21   15   17 1
    22   15   37 1
    23   16   21 1
    24   17   18 1
    25   17   19 1
    26   17   38 1
    27   18   39 1
    28   19   20 1
    29   19   21 1
    30   19   40 1
    31   20   41 1
    32   21   22 1
    33   21   42 1
    34   22   23 ar
    35   22   31 ar
    36   23   24 ar
    37   23   43 1
    38   24   25 ar
    39   24   47 1
    40   25   26 ar
    41   25   31 ar
    42   26   27 1
    43   26   28 ar
    44   27   44 1
    45   27   45 1
    46   28   29 ar
    47   29   30 ar
    48   29   46 1
    49   30   31 ar
@<TRIPOS>SUBSTRUCTURE
     1 ACP         1 GROUP 0 A     ****
@<TRIPOS>MOLECULE
[[5-(6-amino-7,8-dihydropurin-8-ylium-9-yl)-3,4-dihydroxy-tetrahydrofuran-2-yl]methoxy-oxido-phosphoryl]oxy-[[hydroxy(oxido)phosphoryl]methyl]phosphinate
   47    49     1     0     0
SMALL
USER_CHARGES

@<TRIPOS>ATOM
      1 PG          4.2204   -3.4632    0.3204 P.3       1 ACP         1.3755
      2 O1G         3.1244   -2.7257    1.0537 O.co2     1 ACP        -0.8970
      3 O2G         4.9326   -2.8659   -0.8713 O.co2     1 ACP        -0.8970
      4 O3G         5.3233   -4.0020    1.3943 O.3       1 ACP        -0.7959
      5 PB          2.8938   -6.3578    0.9808 P.3       1 ACP         1.5194
      6 O1B         4.0286   -6.7288    1.9067 O.co2     1 ACP        -0.8958
      7 O2B         2.1433   -7.3921    0.1738 O.co2     1 ACP        -0.8958
      8 C3B         3.5390   -5.0973   -0.2062 C.3       1 ACP        -0.5612
      9 PA          0.9395   -5.6783    3.1082 P.3       1 ACP         1.6019
     10 O1A         1.8782   -5.7975    4.2891 O.co2     1 ACP        -0.9040
     11 O2A        -0.0606   -6.7729    2.8048 O.co2     1 ACP        -0.9040
     12 O3A         1.8299   -5.4047    1.7669 O.3       1 ACP        -0.8156
     13 O5'         0.1597   -4.2446    3.2157 O.3       1 ACP        -0.5465
     14 C5'        -0.7840   -3.8935    2.2172 C.3       1 ACP         0.2108
     15 C4'        -0.0724   -3.1466    1.1027 C.3       1 ACP         0.0552
     16 O4'        -0.8674   -3.1929   -0.0945 O.3       1 ACP        -0.3428
     17 C3'         0.1338   -1.6715    1.4027 C.3       1 ACP         0.0750
     18 O3'         1.2893   -1.4445    2.1808 O.3       1 ACP        -0.6066
     19 C2'         0.2158   -1.0724    0.0128 C.3       1 ACP         0.1185
     20 O2'         1.5141   -1.2448   -0.5513 O.3       1 ACP        -0.5858
     21 C1'        -0.7897   -1.9176   -0.7583 C.3       1 ACP         0.3826
     22 N9         -2.1040   -1.3333   -0.7704 N.pl3     1 ACP        -0.5729
     23 C8         -3.0822   -1.4850    0.1102 C.ar      1 ACP         0.3288
     24 N7         -4.1844   -0.7999   -0.1888 N.pl3     1 ACP        -0.5338
     25 C5         -3.8875   -0.1651   -1.3445 C.ar      1 ACP        -0.2581
     26 C6         -4.5941    0.6799   -2.1486 C.ar      1 ACP         0.7413
     27 N6         -5.9138    1.0274   -1.7939 N.pl3     1 ACP        -0.9512
     28 N1         -4.0421    1.1824   -3.2748 N.ar      1 ACP        -0.7699
     29 C2         -2.7637    0.7937   -3.5405 C.ar      1 ACP         0.6898
     30 N3         -1.9788   -0.0343   -2.8139 N.ar      1 ACP        -0.6800
     31 C4         -2.5915   -0.4902   -1.7174 C.ar      1 ACP         0.6129
     32 HOG3        5.7921   -3.3457    1.9526 H         1 ACP         0.4199
     33 H3B1        4.3345   -5.5875   -0.7782 H         1 ACP         0.0672
     34 H3B2        2.7189   -4.8854   -0.9011 H         1 ACP         0.0672
     35 H5'1       -1.2472   -4.8069    1.8308 H         1 ACP         0.0277
     36 H5'2       -1.5578   -3.2634    2.6671 H         1 ACP         0.0277
     37 H4'         0.8886   -3.6447    0.8779 H         1 ACP         0.1249
     38 H3'        -0.7373   -1.2359    1.9870 H         1 ACP         0.0564
     39 HO3'        1.3408   -0.4870    2.3219 H         1 ACP         0.4511
     40 H2'        -0.0384   -0.0310    0.0096 H         1 ACP         0.0716
     41 HO2'        2.1463   -0.7958    0.0370 H         1 ACP         0.4454
     42 H1'        -0.4769   -2.1002   -1.8093 H         1 ACP         0.1310
     43 H8         -3.0031   -2.1011    0.9891 H         1 ACP         0.3565
     44 HN61       -6.3271    0.6117   -0.9836 H         1 ACP         0.4414
     45 HN62       -6.4471    1.6092   -2.4083 H         1 ACP         0.4414
     46 H2         -2.3243    1.1986   -4.4449 H         1 ACP         0.0676
     47 H47        -5.0436   -0.7722    0.3425 H         1 ACP         0.5052
@<TRIPOS>BOND
     1    1    2 2
     2    1    3 1
     3    1    4 1
     4    1    8 1
     5    4   32 1
     6    5    6 2
     7    5    7 1
     8    5    8 1
     9    5   12 1
    10    8   33 1
    11    8   34 1
    12    9   10 2
    13    9   11 1
    14    9   12 1
    15    9   13 1
    16   13   14 1
    17   14   15 1
    18   14   35 1
    19   14   36 1
    20   15   16 1
    21   15   17 1
    22   15   37 1
    23   16   21 1
    24   17   18 1
    25   17   19 1
    26   17   38 1
    27   18   39 1
    28   19   20 1
    29   19   21 1
    30   19   40 1
    31   20   41 1
    32   21   22 1
    33   21   42 1
    34   22   23 ar
    35   22   31 ar
    36   23   24 ar
    37   23   43 1
    38   24   25 ar
    39   24   47 1
    40   25   26 ar
    41   25   31 ar
    42   26   27 1
    43   26   28 ar
    44   27   44 1
    45   27   45 1
    46   28   29 ar
    47   29   30 ar
    48   29   46 1
    49   30   31 ar
@<TRIPOS>SUBSTRUCTURE
     1 ACP         1 GROUP 0 A     ****
@<TRIPOS>MOLECULE
[[5-(6-amino-7,8-dihydropurin-8-ylium-9-yl)-3,4-dihydroxy-tetrahydrofuran-2-yl]methoxy-oxido-phosphoryl]oxy-[[hydroxy(oxido)phosphoryl]methyl]phosphinate
   47    49     1     0     0
SMALL
USER_CHARGES

@<TRIPOS>ATOM
      1 PG         -0.6404   -4.1472    0.4085 P.3       1 ACP         1.3755
      2 O1G         0.0143   -2.8047    0.6362 O.co2     1 ACP        -0.8970
      3 O2G        -0.4350   -5.3114    1.3502 O.co2     1 ACP        -0.8970
      4 O3G        -2.2370   -3.9350    0.1524 O.3       1 ACP        -0.7959
      5 PB         -0.5775   -3.7763   -2.8216 P.3       1 ACP         1.5194
      6 O1B        -2.0818   -3.6552   -2.8926 O.co2     1 ACP        -0.8958
      7 O2B         0.2349   -4.3781   -3.9450 O.co2     1 ACP        -0.8958
      8 C3B        -0.1712   -4.7178   -1.2846 C.3       1 ACP        -0.5612
      9 PA          0.0015   -0.8796   -3.1063 P.3       1 ACP         1.6019
     10 O1A        -1.4258   -0.3817   -3.0396 O.co2     1 ACP        -0.9040
     11 O2A         0.7288   -0.9602   -4.4311 O.co2     1 ACP        -0.9040
     12 O3A         0.0710   -2.3446   -2.3880 O.3       1 ACP        -0.8156
     13 O5'         0.8970   -0.0132   -2.0468 O.3       1 ACP        -0.5465
     14 C5'         2.2816   -0.2918   -1.9206 C.3       1 ACP         0.2108
     15 C4'         2.7248    0.0226   -0.4980 C.3       1 ACP         0.0552
     16 O4'         2.4697    1.4219   -0.2462 O.3       1 ACP        -0.3428
     17 C3'         1.9404   -0.7419    0.5596 C.3       1 ACP         0.0750
     18 O3'         2.7418   -0.8086    1.7389 O.3       1 ACP        -0.6066
     19 C2'         0.7477    0.1630    0.7858 C.3       1 ACP         0.1185
     20 O2'         0.1373   -0.0577    2.0407 O.3       1 ACP        -0.5858
     21 C1'         1.3733    1.5427    0.6747 C.3       1 ACP         0.3826
     22 N9          0.4520    2.5240    0.1767 N.pl3     1 ACP        -0.5729
     23 C8          0.1928    2.8484   -1.0815 C.ar      1 ACP         0.3288
     24 N7         -0.7248    3.8048   -1.2110 N.pl3     1 ACP        -0.5338
     25 C5         -1.0765    4.1129    0.0571 C.ar      1 ACP        -0.2581
     26 C6         -1.9614    5.0063    0.5851 C.ar      1 ACP         0.7413
     27 N6         -2.7145    5.8254   -0.2810 N.pl3     1 ACP        -0.9512
     28 N1         -2.1199    5.1113    1.9228 N.ar      1 ACP        -0.7699
     29 C2         -1.3522    4.2822    2.6839 C.ar      1 ACP         0.6898
     30 N3         -0.4501    3.3660    2.2638 N.ar      1 ACP        -0.6800
     31 C4         -0.3487    3.3198    0.9322 C.ar      1 ACP         0.6129
     32 HOG3       -2.7716   -3.5112    0.8572 H         1 ACP         0.4199
     33 H3B1       -0.6146   -5.7127   -1.4030 H         1 ACP         0.0672
     34 H3B2        0.9174   -4.8426   -1.2825 H         1 ACP         0.0672
     35 H5'1        2.4525   -1.3484   -2.1500 H         1 ACP         0.0277
     36 H5'2        2.8335    0.3232   -2.6384 H         1 ACP         0.0277
     37 H4'         3.8050   -0.1388   -0.4008 H         1 ACP         0.1249
     38 H3'         1.6784   -1.7629    0.2714 H         1 ACP         0.0564
     39 HO3'        2.2232   -1.2979    2.3953 H         1 ACP         0.4511
     40 H2'        -0.0011    0.0027    0.0003 H         1 ACP         0.0716
     41 HO2'       -0.1563   -0.9855    2.0596 H         1 ACP         0.4454
     42 H1'         1.7826    1.9024    1.6451 H         1 ACP         0.1310
     43 H8          0.6728    2.3873   -1.9272 H         1 ACP         0.3565
     44 HN61       -2.5537    5.7714   -1.2667 H         1 ACP         0.4414
     45 HN62       -3.3283    6.5126    0.1080 H         1 ACP         0.4414
     46 H2         -1.4818    4.3694    3.7565 H         1 ACP         0.0676
     47 H47        -1.0701    4.2005   -2.0743 H         1 ACP         0.5052
@<TRIPOS>BOND
     1    1    2 2
     2    1    3 1
     3    1    4 1
     4    1    8 1
     5    4   32 1
     6    5    6 2
     7    5    7 1
     8    5    8 1
     9    5   12 1
    10    8   33 1
    11    8   34 1
    12    9   10 2
    13    9   11 1
    14    9   12 1
    15    9   13 1
    16   13   14 1
    17   14   15 1
    18   14   35 1
    19   14   36 1
    20   15   16 1
    21   15   17 1
    22   15   37 1
    23   16   21 1
    24   17   18 1
    25   17   19 1
    26   17   38 1
    27   18   39 1
    28   19   20 1
    29   19   21 1
    30   19   40 1
    31   20   41 1
    32   21   22 1
    33   21   42 1
    34   22   23 ar
    35   22   31 ar
    36   23   24 ar
    37   23   43 1
    38   24   25 ar
    39   24   47 1
    40   25   26 ar
    41   25   31 ar
    42   26   27 1
    43   26   28 ar
    44   27   44 1
    45   27   45 1
    46   28   29 ar
    47   29   30 ar
    48   29   46 1
    49   30   31 ar
@<TRIPOS>SUBSTRUCTURE
     1 ACP         1 GROUP 0 A     ****
@<TRIPOS>MOLECULE
[[5-(6-amino-7,8-dihydropurin-8-ylium-9-yl)-3,4-dihydroxy-tetrahydrofuran-2-yl]methoxy-oxido-phosphoryl]oxy-[[hydroxy(oxido)phosphoryl]methyl]phosphinate
   47    49     1     0     0
SMALL
USER_CHARGES

@<TRIPOS>ATOM
      1 PG         -5.3760   -3.8699    2.6509 P.3       1 ACP         1.3755
      2 O1G        -6.8317   -3.6180    2.9676 O.co2     1 ACP        -0.8970
      3 O2G        -4.5757   -2.9466    1.7613 O.co2     1 ACP        -0.8970
      4 O3G        -4.5567   -4.1281    4.0373 O.3       1 ACP        -0.7959
      5 PB         -3.6463   -6.3235    1.4006 P.3       1 ACP         1.5194
      6 O1B        -3.0762   -5.4413    0.3145 O.co2     1 ACP        -0.8958
      7 O2B        -3.8936   -7.7997    1.1907 O.co2     1 ACP        -0.8958
      8 C3B        -5.2445   -5.5704    1.9416 C.3       1 ACP        -0.5612
      9 PA         -1.2314   -6.3276    3.1254 P.3       1 ACP         1.6019
     10 O1A        -0.8495   -7.7340    2.7182 O.co2     1 ACP        -0.9040
     11 O2A        -0.9696   -5.8343    4.5320 O.co2     1 ACP        -0.9040
     12 O3A        -2.8126   -6.1031    2.7842 O.3       1 ACP        -0.8156
     13 O5'        -0.5697   -5.2855    2.0524 O.3       1 ACP        -0.5465
     14 C5'        -0.7840   -3.8935    2.2172 C.3       1 ACP         0.2108
     15 C4'        -0.0724   -3.1466    1.1027 C.3       1 ACP         0.0552
     16 O4'        -0.8674   -3.1929   -0.0945 O.3       1 ACP        -0.3428
     17 C3'         0.1338   -1.6715    1.4027 C.3       1 ACP         0.0750
     18 O3'         1.2893   -1.4445    2.1808 O.3       1 ACP        -0.6066
     19 C2'         0.2158   -1.0724    0.0128 C.3       1 ACP         0.1185
     20 O2'         1.5141   -1.2448   -0.5513 O.3       1 ACP        -0.5858
     21 C1'        -0.7897   -1.9176   -0.7583 C.3       1 ACP         0.3826
     22 N9         -2.1040   -1.3333   -0.7704 N.pl3     1 ACP        -0.5729
     23 C8         -3.2304   -1.8262   -0.2767 C.ar      1 ACP         0.3288
     24 N7         -4.2847   -1.0309   -0.4481 N.pl3     1 ACP        -0.5338
     25 C5         -3.7951    0.0479   -1.0985 C.ar      1 ACP        -0.2581
     26 C6         -4.3691    1.1983   -1.5536 C.ar      1 ACP         0.7413
     27 N6         -5.7501    1.4047   -1.3573 N.pl3     1 ACP        -0.9512
     28 N1         -3.6289    2.1345   -2.1869 N.ar      1 ACP        -0.7699
     29 C2         -2.3041    1.8525   -2.3333 C.ar      1 ACP         0.6898
     30 N3         -1.6387    0.7492   -1.9218 N.ar      1 ACP        -0.6800
     31 C4         -2.4348   -0.1293   -1.3053 C.ar      1 ACP         0.6129
     32 HOG3       -4.5473   -3.4183    4.7143 H         1 ACP         0.4199
     33 H3B1       -5.9072   -5.5871    1.0692 H         1 ACP         0.0672
     34 H3B2       -5.6667   -6.2539    2.6866 H         1 ACP         0.0672
     35 H5'1       -1.8599   -3.6946    2.1849 H         1 ACP         0.0277
     36 H5'2       -0.3934   -3.5881    3.1930 H         1 ACP         0.0277
     37 H4'         0.8886   -3.6447    0.8779 H         1 ACP         0.1249
     38 H3'        -0.7373   -1.2359    1.9870 H         1 ACP         0.0564
     39 HO3'        1.1626   -1.9325    3.0084 H         1 ACP         0.4511
     40 H2'        -0.0384   -0.0310    0.0096 H         1 ACP         0.0716
     41 HO2'        1.4998   -0.8412   -1.4369 H         1 ACP         0.4454
     42 H1'        -0.4769   -2.1002   -1.8093 H         1 ACP         0.1310
     43 H8         -3.2974   -2.7789    0.2194 H         1 ACP         0.3565
     44 HN61       -6.2956    0.6838   -0.9296 H         1 ACP         0.4414
     45 HN62       -6.1788    2.2266   -1.7327 H         1 ACP         0.4414
     46 H2         -1.7135    2.6057   -2.8421 H         1 ACP         0.0676
     47 H47        -5.2337   -1.2102   -0.1507 H         1 ACP         0.5052
@<TRIPOS>BOND
     1    1    2 2
     2    1    3 1
     3    1    4 1
     4    1    8 1
     5    4   32 1
     6    5    6 2
     7    5    7 1
     8    5    8 1
     9    5   12 1
    10    8   33 1
    11    8   34 1
    12    9   10 2
    13    9   11 1
    14    9   12 1
    15    9   13 1
    16   13   14 1
    17   14   15 1
    18   14   35 1
    19   14   36 1
    20   15   16 1
    21   15   17 1
    22   15   37 1
    23   16   21 1
    24   17   18 1
    25   17   19 1
    26   17   38 1
    27   18   39 1
    28   19   20 1
    29   19   21 1
    30   19   40 1
    31   20   41 1
    32   21   22 1
    33   21   42 1
    34   22   23 ar
    35   22   31 ar
    36   23   24 ar
    37   23   43 1
    38   24   25 ar
    39   24   47 1
    40   25   26 ar
    41   25   31 ar
    42   26   27 1
    43   26   28 ar
    44   27   44 1
    45   27   45 1
    46   28   29 ar
    47   29   30 ar
    48   29   46 1
    49   30   31 ar
@<TRIPOS>SUBSTRUCTURE
     1 ACP         1 GROUP 0 A     ****
@<TRIPOS>MOLECULE
[[5-(6-amino-7,8-dihydropurin-8-ylium-9-yl)-3,4-dihydroxy-tetrahydrofuran-2-yl]methoxy-oxido-phosphoryl]oxy-[[hydroxy(oxido)phosphoryl]methyl]phosphinate
   47    49     1     0     0
SMALL
USER_CHARGES

@<TRIPOS>ATOM
      1 PG          6.0262   -0.8990    1.5996 P.3       1 ACP         1.3755
      2 O1G         5.6347   -1.3014    3.0023 O.co2     1 ACP        -0.8970
      3 O2G         5.3868    0.2734    0.8920 O.co2     1 ACP        -0.8970
      4 O3G         7.6491   -0.7660    1.5071 O.3       1 ACP        -0.7959
      5 PB          6.1772   -2.3683   -1.2976 P.3       1 ACP         1.5194
      6 O1B         5.8848   -3.7538   -1.8245 O.co2     1 ACP        -0.8958
      7 O2B         7.5218   -1.7039   -1.4841 O.co2     1 ACP        -0.8958
      8 C3B         5.8168   -2.3793    0.5146 C.3       1 ACP        -0.5612
      9 PA          4.4771   -0.9086   -3.2433 P.3       1 ACP         1.6019
     10 O1A         3.8411   -2.1148   -3.8993 O.co2     1 ACP        -0.9040
     11 O2A         5.5887   -0.1507   -3.9364 O.co2     1 ACP        -0.9040
     12 O3A         4.9956   -1.3431   -1.7570 O.3       1 ACP        -0.8156
     13 O5'         3.2883    0.1336   -2.8242 O.3       1 ACP        -0.5465
     14 C5'         2.2816   -0.2918   -1.9206 C.3       1 ACP         0.2108
     15 C4'         2.7248    0.0226   -0.4980 C.3       1 ACP         0.0552
     16 O4'         2.4697    1.4219   -0.2462 O.3       1 ACP        -0.3428
     17 C3'         1.9404   -0.7419    0.5596 C.3       1 ACP         0.0750
     18 O3'         2.7418   -0.8086    1.7389 O.3       1 ACP        -0.6066
     19 C2'         0.7477    0.1630    0.7858 C.3       1 ACP         0.1185
     20 O2'         0.1373   -0.0577    2.0407 O.3       1 ACP        -0.5858
     21 C1'         1.3733    1.5427    0.6747 C.3       1 ACP         0.3826
     22 N9          0.4520    2.5240    0.1767 N.pl3     1 ACP        -0.5729
     23 C8          0.5305    3.2394   -0.9358 C.ar      1 ACP         0.3288
     24 N7         -0.4966    4.0680   -1.1145 N.pl3     1 ACP        -0.5338
     25 C5         -1.2879    3.8664   -0.0375 C.ar      1 ACP        -0.2581
     26 C6         -2.4754    4.4084    0.3577 C.ar      1 ACP         0.7413
     27 N6         -3.0892    5.3882   -0.4495 N.pl3     1 ACP        -0.9512
     28 N1         -3.0632    4.0158    1.5092 N.ar      1 ACP        -0.7699
     29 C2         -2.4008    3.0654    2.2262 C.ar      1 ACP         0.6898
     30 N3         -1.2259    2.4663    1.9260 N.ar      1 ACP        -0.6800
     31 C4         -0.7062    2.9047    0.7757 C.ar      1 ACP         0.6129
     32 HOG3        8.0992   -0.1174    2.0894 H         1 ACP         0.4199
     33 H3B1        4.7711   -2.6883    0.6218 H         1 ACP         0.0672
     34 H3B2        6.4384   -3.1728    0.9441 H         1 ACP         0.0672
     35 H5'1        1.3500    0.2325   -2.1560 H         1 ACP         0.0277
     36 H5'2        2.1267   -1.3683   -2.0444 H         1 ACP         0.0277
     37 H4'         3.8050   -0.1388   -0.4008 H         1 ACP         0.1249
     38 H3'         1.6784   -1.7629    0.2714 H         1 ACP         0.0564
     39 HO3'        3.5554   -1.2733    1.4914 H         1 ACP         0.4511
     40 H2'        -0.0011    0.0027    0.0003 H         1 ACP         0.0716
     41 HO2'        0.8082    0.1199    2.7232 H         1 ACP         0.4454
     42 H1'         1.7826    1.9024    1.6451 H         1 ACP         0.1310
     43 H8          1.3437    3.1645   -1.6367 H         1 ACP         0.3565
     44 HN61       -2.6210    5.7042   -1.2748 H         1 ACP         0.4414
     45 HN62       -3.9356    5.8187   -0.1356 H         1 ACP         0.4414
     46 H2         -2.8752    2.7532    3.1495 H         1 ACP         0.0676
     47 H47        -0.6372    4.7004   -1.8900 H         1 ACP         0.5052
@<TRIPOS>BOND
     1    1    2 2
     2    1    3 1
     3    1    4 1
     4    1    8 1
     5    4   32 1
     6    5    6 2
     7    5    7 1
     8    5    8 1
     9    5   12 1
    10    8   33 1
    11    8   34 1
    12    9   10 2
    13    9   11 1
    14    9   12 1
    15    9   13 1
    16   13   14 1
    17   14   15 1
    18   14   35 1
    19   14   36 1
    20   15   16 1
    21   15   17 1
    22   15   37 1
    23   16   21 1
    24   17   18 1
    25   17   19 1
    26   17   38 1
    27   18   39 1
    28   19   20 1
    29   19   21 1
    30   19   40 1
    31   20   41 1
    32   21   22 1
    33   21   42 1
    34   22   23 ar
    35   22   31 ar
    36   23   24 ar
    37   23   43 1
    38   24   25 ar
    39   24   47 1
    40   25   26 ar
    41   25   31 ar
    42   26   27 1
    43   26   28 ar
    44   27   44 1
    45   27   45 1
    46   28   29 ar
    47   29   30 ar
    48   29   46 1
    49   30   31 ar
@<TRIPOS>SUBSTRUCTURE
     1 ACP         1 GROUP 0 A     ****
@<TRIPOS>MOLECULE
[[5-(6-amino-7,8-dihydropurin-8-ylium-9-yl)-3,4-dihydroxy-tetrahydrofuran-2-yl]methoxy-oxido-phosphoryl]oxy-[[hydroxy(oxido)phosphoryl]methyl]phosphinate
   47    49     1     0     0
SMALL
USER_CHARGES

@<TRIPOS>ATOM
      1 PG          6.0315   -2.7098   -0.3707 P.3       1 ACP         1.3755
      2 O1G         4.8170   -1.8330   -0.1726 O.co2     1 ACP        -0.8970
      3 O2G         6.9304   -3.1086    0.7769 O.co2     1 ACP        -0.8970
      4 O3G         5.6073   -4.0409   -1.2123 O.3       1 ACP        -0.7959
      5 PB          6.5242   -1.5716   -3.3769 P.3       1 ACP         1.5194
      6 O1B         6.1555   -2.8980   -3.9993 O.co2     1 ACP        -0.8958
      7 O2B         7.5323   -0.6393   -4.0085 O.co2     1 ACP        -0.8958
      8 C3B         7.0947   -1.9104   -1.6524 C.3       1 ACP        -0.5612
      9 PA          3.9534   -0.2075   -3.9573 P.3       1 ACP         1.6019
     10 O1A         3.2055   -1.4082   -4.4944 O.co2     1 ACP        -0.9040
     11 O2A         4.5033    0.8426   -4.8984 O.co2     1 ACP        -0.9040
     12 O3A         5.1710   -0.7403   -3.0083 O.3       1 ACP        -0.8156
     13 O5'         3.0198    0.5138   -2.8245 O.3       1 ACP        -0.5465
     14 C5'         2.2816   -0.2918   -1.9206 C.3       1 ACP         0.2108
     15 C4'         2.7248    0.0226   -0.4980 C.3       1 ACP         0.0552
     16 O4'         2.4697    1.4219   -0.2462 O.3       1 ACP        -0.3428
     17 C3'         1.9404   -0.7419    0.5596 C.3       1 ACP         0.0750
     18 O3'         2.7418   -0.8086    1.7389 O.3       1 ACP        -0.6066
     19 C2'         0.7477    0.1630    0.7858 C.3       1 ACP         0.1185
     20 O2'         0.1373   -0.0577    2.0407 O.3       1 ACP        -0.5858
     21 C1'         1.3733    1.5427    0.6747 C.3       1 ACP         0.3826
     22 N9          0.4520    2.5240    0.1767 N.pl3     1 ACP        -0.5729
     23 C8         -0.2172    2.5216   -0.9668 C.ar      1 ACP         0.3288
     24 N7         -1.0011    3.5855   -1.1321 N.pl3     1 ACP        -0.5338
     25 C5         -0.8184    4.3200   -0.0123 C.ar      1 ACP        -0.2581
     26 C6         -1.3349    5.5079    0.4144 C.ar      1 ACP         0.7413
     27 N6         -2.2567    6.1930   -0.4036 N.pl3     1 ACP        -0.9512
     28 N1         -0.9716    6.0291    1.6069 N.ar      1 ACP        -0.7699
     29 C2         -0.0765    5.3009    2.3312 C.ar      1 ACP         0.6898
     30 N3          0.4933    4.1191    2.0023 N.ar      1 ACP        -0.6800
     31 C4          0.0865    3.6675    0.8123 C.ar      1 ACP         0.6129
     32 HOG3        4.9264   -4.6367   -0.8332 H         1 ACP         0.4199
     33 H3B1        7.9892   -2.5372   -1.7383 H         1 ACP         0.0672
     34 H3B2        7.4096   -0.9451   -1.2405 H         1 ACP         0.0672
     35 H5'1        1.2153   -0.0781   -2.0454 H         1 ACP         0.0277
     36 H5'2        2.4645   -1.3454   -2.1547 H         1 ACP         0.0277
     37 H4'         3.8050   -0.1388   -0.4008 H         1 ACP         0.1249
     38 H3'         1.6784   -1.7629    0.2714 H         1 ACP         0.0564
     39 HO3'        2.9083    0.1071    2.0092 H         1 ACP         0.4511
     40 H2'        -0.0011    0.0027    0.0003 H         1 ACP         0.0716
     41 HO2'       -0.1563   -0.9855    2.0596 H         1 ACP         0.4454
     42 H1'         1.7826    1.9024    1.6451 H         1 ACP         0.1310
     43 H8         -0.1423    1.7373   -1.6999 H         1 ACP         0.3565
     44 HN61       -2.4811    5.8206   -1.3042 H         1 ACP         0.4414
     45 HN62       -2.5986    7.0863   -0.1113 H         1 ACP         0.4414
     46 H2          0.2128    5.7222    3.2871 H         1 ACP         0.0676
     47 H47        -1.5947    3.7835   -1.9255 H         1 ACP         0.5052
@<TRIPOS>BOND
     1    1    2 2
     2    1    3 1
     3    1    4 1
     4    1    8 1
     5    4   32 1
     6    5    6 2
     7    5    7 1
     8    5    8 1
     9    5   12 1
    10    8   33 1
    11    8   34 1
    12    9   10 2
    13    9   11 1
    14    9   12 1
    15    9   13 1
    16   13   14 1
    17   14   15 1
    18   14   35 1
    19   14   36 1
    20   15   16 1
    21   15   17 1
    22   15   37 1
    23   16   21 1
    24   17   18 1
    25   17   19 1
    26   17   38 1
    27   18   39 1
    28   19   20 1
    29   19   21 1
    30   19   40 1
    31   20   41 1
    32   21   22 1
    33   21   42 1
    34   22   23 ar
    35   22   31 ar
    36   23   24 ar
    37   23   43 1
    38   24   25 ar
    39   24   47 1
    40   25   26 ar
    41   25   31 ar
    42   26   27 1
    43   26   28 ar
    44   27   44 1
    45   27   45 1
    46   28   29 ar
    47   29   30 ar
    48   29   46 1
    49   30   31 ar
@<TRIPOS>SUBSTRUCTURE
     1 ACP         1 GROUP 0 A     ****
@<TRIPOS>MOLECULE
[[5-(6-amino-7,8-dihydropurin-8-ylium-9-yl)-3,4-dihydroxy-tetrahydrofuran-2-yl]methoxy-oxido-phosphoryl]oxy-[[hydroxy(oxido)phosphoryl]methyl]phosphinate
   47    49     1     0     0
SMALL
USER_CHARGES

@<TRIPOS>ATOM
      1 PG          6.0262   -0.8990    1.5996 P.3       1 ACP         1.3755
      2 O1G         5.6347   -1.3014    3.0023 O.co2     1 ACP        -0.8970
      3 O2G         5.3868    0.2734    0.8920 O.co2     1 ACP        -0.8970
      4 O3G         7.6491   -0.7660    1.5071 O.3       1 ACP        -0.7959
      5 PB          6.1772   -2.3683   -1.2976 P.3       1 ACP         1.5194
      6 O1B         5.8848   -3.7538   -1.8245 O.co2     1 ACP        -0.8958
      7 O2B         7.5218   -1.7039   -1.4841 O.co2     1 ACP        -0.8958
      8 C3B         5.8168   -2.3793    0.5146 C.3       1 ACP        -0.5612
      9 PA          4.4771   -0.9086   -3.2433 P.3       1 ACP         1.6019
     10 O1A         3.8411   -2.1148   -3.8993 O.co2     1 ACP        -0.9040
     11 O2A         5.5887   -0.1507   -3.9364 O.co2     1 ACP        -0.9040
     12 O3A         4.9956   -1.3431   -1.7570 O.3       1 ACP        -0.8156
     13 O5'         3.2883    0.1336   -2.8242 O.3       1 ACP        -0.5465
     14 C5'         2.2816   -0.2918   -1.9206 C.3       1 ACP         0.2108
     15 C4'         2.7248    0.0226   -0.4980 C.3       1 ACP         0.0552
     16 O4'         2.4697    1.4219   -0.2462 O.3       1 ACP        -0.3428
     17 C3'         1.9404   -0.7419    0.5596 C.3       1 ACP         0.0750
     18 O3'         2.7418   -0.8086    1.7389 O.3       1 ACP        -0.6066
     19 C2'         0.7477    0.1630    0.7858 C.3       1 ACP         0.1185
     20 O2'         0.1373   -0.0577    2.0407 O.3       1 ACP        -0.5858
     21 C1'         1.3733    1.5427    0.6747 C.3       1 ACP         0.3826
     22 N9          0.4520    2.5240    0.1767 N.pl3     1 ACP        -0.5729
     23 C8         -0.5899    2.3466   -0.6224 C.ar      1 ACP         0.3288
     24 N7         -1.2514    3.4689   -0.8989 N.pl3     1 ACP        -0.5338
     25 C5         -0.5826    4.4323   -0.2272 C.ar      1 ACP        -0.2581
     26 C6         -0.7636    5.7789   -0.1086 C.ar      1 ACP         0.7413
     27 N6         -1.8382    6.3927   -0.7843 N.pl3     1 ACP        -0.9512
     28 N1          0.0741    6.5233    0.6461 N.ar      1 ACP        -0.7699
     29 C2          1.0845    5.8486    1.2626 C.ar      1 ACP         0.6898
     30 N3          1.3516    4.5236    1.2116 N.ar      1 ACP        -0.6800
     31 C4          0.4827    3.8546    0.4481 C.ar      1 ACP         0.6129
     32 HOG3        8.0992   -0.1174    2.0894 H         1 ACP         0.4199
     33 H3B1        4.7711   -2.6883    0.6218 H         1 ACP         0.0672
     34 H3B2        6.4384   -3.1728    0.9441 H         1 ACP         0.0672
     35 H5'1        1.3500    0.2325   -2.1560 H         1 ACP         0.0277
     36 H5'2        2.1267   -1.3683   -2.0444 H         1 ACP         0.0277
     37 H4'         3.8050   -0.1388   -0.4008 H         1 ACP         0.1249
     38 H3'         1.6784   -1.7629    0.2714 H         1 ACP         0.0564
     39 HO3'        2.2232   -1.2979    2.3953 H         1 ACP         0.4511
     40 H2'        -0.0011    0.0027    0.0003 H         1 ACP         0.0716
     41 HO2'       -0.1563   -0.9855    2.0596 H         1 ACP         0.4454
     42 H1'         1.7826    1.9024    1.6451 H         1 ACP         0.1310
     43 H8         -0.8833    1.3888   -1.0158 H         1 ACP         0.3565
     44 HN61       -2.4225    5.8385   -1.3773 H         1 ACP         0.4414
     45 HN62       -1.9421    7.3862   -0.7348 H         1 ACP         0.4414
     46 H2          1.7546    6.4491    1.8670 H         1 ACP         0.0676
     47 H47        -2.0705    3.5612   -1.4834 H         1 ACP         0.5052
@<TRIPOS>BOND
     1    1    2 2
     2    1    3 1
     3    1    4 1
     4    1    8 1
     5    4   32 1
     6    5    6 2
     7    5    7 1
     8    5    8 1
     9    5   12 1
    10    8   33 1
    11    8   34 1
    12    9   10 2
    13    9   11 1
    14    9   12 1
    15    9   13 1
    16   13   14 1
    17   14   15 1
    18   14   35 1
    19   14   36 1
    20   15   16 1
    21   15   17 1
    22   15   37 1
    23   16   21 1
    24   17   18 1
    25   17   19 1
    26   17   38 1
    27   18   39 1
    28   19   20 1
    29   19   21 1
    30   19   40 1
    31   20   41 1
    32   21   22 1
    33   21   42 1
    34   22   23 ar
    35   22   31 ar
    36   23   24 ar
    37   23   43 1
    38   24   25 ar
    39   24   47 1
    40   25   26 ar
    41   25   31 ar
    42   26   27 1
    43   26   28 ar
    44   27   44 1
    45   27   45 1
    46   28   29 ar
    47   29   30 ar
    48   29   46 1
    49   30   31 ar
@<TRIPOS>SUBSTRUCTURE
     1 ACP         1 GROUP 0 A     ****
@<TRIPOS>MOLECULE
[[5-(6-amino-7,8-dihydropurin-8-ylium-9-yl)-3,4-dihydroxy-tetrahydrofuran-2-yl]methoxy-oxido-phosphoryl]oxy-[[hydroxy(oxido)phosphoryl]methyl]phosphinate
   47    49     1     0     0
SMALL
USER_CHARGES

@<TRIPOS>ATOM
      1 PG         -1.9907    0.5928   -3.4170 P.3       1 ACP         1.3755
      2 O1G        -3.4494    0.6005   -3.8106 O.co2     1 ACP        -0.8970
      3 O2G        -1.5484    0.6083   -1.9719 O.co2     1 ACP        -0.8970
      4 O3G        -1.2235   -0.6123   -4.2037 O.3       1 ACP        -0.7959
      5 PB          0.6177    2.4199   -4.0752 P.3       1 ACP         1.5194
      6 O1B         0.8757    2.6780   -2.6091 O.co2     1 ACP        -0.8958
      7 O2B         0.9648    3.4314   -5.1432 O.co2     1 ACP        -0.8958
      8 C3B        -1.1774    2.0221   -4.2583 C.3       1 ACP        -0.5612
      9 PA          2.7389    0.3751   -4.4298 P.3       1 ACP         1.6019
     10 O1A         3.6524    1.3383   -5.1562 O.co2     1 ACP        -0.9040
     11 O2A         2.7044   -1.0896   -4.8094 O.co2     1 ACP        -0.9040
     12 O3A         1.2162    0.9618   -4.4921 O.3       1 ACP        -0.8156
     13 O5'         3.0198    0.5138   -2.8245 O.3       1 ACP        -0.5465
     14 C5'         2.2816   -0.2918   -1.9206 C.3       1 ACP         0.2108
     15 C4'         2.7248    0.0226   -0.4980 C.3       1 ACP         0.0552
     16 O4'         2.4697    1.4219   -0.2462 O.3       1 ACP        -0.3428
     17 C3'         1.9404   -0.7419    0.5596 C.3       1 ACP         0.0750
     18 O3'         2.7418   -0.8086    1.7389 O.3       1 ACP        -0.6066
     19 C2'         0.7477    0.1630    0.7858 C.3       1 ACP         0.1185
     20 O2'         0.1373   -0.0577    2.0407 O.3       1 ACP        -0.5858
     21 C1'         1.3733    1.5427    0.6747 C.3       1 ACP         0.3826
     22 N9          0.4520    2.5240    0.1767 N.pl3     1 ACP        -0.5729
     23 C8         -0.8252    2.3702   -0.1405 C.ar      1 ACP         0.3288
     24 N7         -1.4086    3.4861   -0.5739 N.pl3     1 ACP        -0.5338
     25 C5         -0.4324    4.4197   -0.5299 C.ar      1 ACP        -0.2581
     26 C6         -0.4006    5.7465   -0.8439 C.ar      1 ACP         0.7413
     27 N6         -1.5714    6.3708   -1.3211 N.pl3     1 ACP        -0.9512
     28 N1          0.7370    6.4615   -0.7020 N.ar      1 ACP        -0.7699
     29 C2          1.8196    5.7785   -0.2355 C.ar      1 ACP         0.6898
     30 N3          1.8948    4.4713    0.1036 N.ar      1 ACP        -0.6800
     31 C4          0.7337    3.8311   -0.0629 C.ar      1 ACP         0.6129
     32 HOG3       -1.5276   -1.5335   -4.0588 H         1 ACP         0.4199
     33 H3B1       -1.7277    2.9145   -3.9400 H         1 ACP         0.0672
     34 H3B2       -1.3533    1.8948   -5.3322 H         1 ACP         0.0672
     35 H5'1        1.2153   -0.0781   -2.0454 H         1 ACP         0.0277
     36 H5'2        2.4645   -1.3454   -2.1547 H         1 ACP         0.0277
     37 H4'         3.8050   -0.1388   -0.4008 H         1 ACP         0.1249
     38 H3'         1.6784   -1.7629    0.2714 H         1 ACP         0.0564
     39 HO3'        2.2232   -1.2979    2.3953 H         1 ACP         0.4511
     40 H2'        -0.0011    0.0027    0.0003 H         1 ACP         0.0716
     41 HO2'       -0.1563   -0.9855    2.0596 H         1 ACP         0.4454
     42 H1'         1.7826    1.9024    1.6451 H         1 ACP         0.1310
     43 H8         -1.3516    1.4351   -0.0582 H         1 ACP         0.3565
     44 HN61       -2.3936    5.8204   -1.4664 H         1 ACP         0.4414
     45 HN62       -1.5348    7.3319   -1.5955 H         1 ACP         0.4414
     46 H2          2.7305    6.3553   -0.1232 H         1 ACP         0.0676
     47 H47        -2.3700    3.5931   -0.8665 H         1 ACP         0.5052
@<TRIPOS>BOND
     1    1    2 2
     2    1    3 1
     3    1    4 1
     4    1    8 1
     5    4   32 1
     6    5    6 2
     7    5    7 1
     8    5    8 1
     9    5   12 1
    10    8   33 1
    11    8   34 1
    12    9   10 2
    13    9   11 1
    14    9   12 1
    15    9   13 1
    16   13   14 1
    17   14   15 1
    18   14   35 1
    19   14   36 1
    20   15   16 1
    21   15   17 1
    22   15   37 1
    23   16   21 1
    24   17   18 1
    25   17   19 1
    26   17   38 1
    27   18   39 1
    28   19   20 1
    29   19   21 1
    30   19   40 1
    31   20   41 1
    32   21   22 1
    33   21   42 1
    34   22   23 ar
    35   22   31 ar
    36   23   24 ar
    37   23   43 1
    38   24   25 ar
    39   24   47 1
    40   25   26 ar
    41   25   31 ar
    42   26   27 1
    43   26   28 ar
    44   27   44 1
    45   27   45 1
    46   28   29 ar
    47   29   30 ar
    48   29   46 1
    49   30   31 ar
@<TRIPOS>SUBSTRUCTURE
     1 ACP         1 GROUP 0 A     ****
@<TRIPOS>MOLECULE
[[5-(6-amino-7,8-dihydropurin-8-ylium-9-yl)-3,4-dihydroxy-tetrahydrofuran-2-yl]methoxy-oxido-phosphoryl]oxy-[[hydroxy(oxido)phosphoryl]methyl]phosphinate
   47    49     1     0     0
SMALL
USER_CHARGES

@<TRIPOS>ATOM
      1 PG          0.6014    4.9211   -5.2889 P.3       1 ACP         1.3755
      2 O1G        -0.6608    5.7471   -5.2030 O.co2     1 ACP        -0.8970
      3 O2G         0.7115    3.7135   -6.1909 O.co2     1 ACP        -0.8970
      4 O3G         1.8765    5.9051   -5.5458 O.3       1 ACP        -0.7959
      5 PB          2.5020    3.3305   -3.1834 P.3       1 ACP         1.5194
      6 O1B         2.5042    3.0973   -1.6907 O.co2     1 ACP        -0.8958
      7 O2B         3.6846    3.9348   -3.9049 O.co2     1 ACP        -0.8958
      8 C3B         1.0275    4.3721   -3.5774 C.3       1 ACP        -0.5612
      9 PA          2.8601    0.6157   -4.3273 P.3       1 ACP         1.6019
     10 O1A         4.1150    1.0126   -5.0738 O.co2     1 ACP        -0.9040
     11 O2A         1.8946   -0.3873   -4.9208 O.co2     1 ACP        -0.9040
     12 O3A         2.0316    1.9723   -3.9530 O.3       1 ACP        -0.8156
     13 O5'         3.2883    0.1336   -2.8242 O.3       1 ACP        -0.5465
     14 C5'         2.2816   -0.2918   -1.9206 C.3       1 ACP         0.2108
     15 C4'         2.7248    0.0226   -0.4980 C.3       1 ACP         0.0552
     16 O4'         2.4697    1.4219   -0.2462 O.3       1 ACP        -0.3428
     17 C3'         1.9404   -0.7419    0.5596 C.3       1 ACP         0.0750
     18 O3'         2.7418   -0.8086    1.7389 O.3       1 ACP        -0.6066
     19 C2'         0.7477    0.1630    0.7858 C.3       1 ACP         0.1185
     20 O2'         0.1373   -0.0577    2.0407 O.3       1 ACP        -0.5858
     21 C1'         1.3733    1.5427    0.6747 C.3       1 ACP         0.3826
     22 N9          0.4520    2.5240    0.1767 N.pl3     1 ACP        -0.5729
     23 C8         -0.5899    2.3466   -0.6224 C.ar      1 ACP         0.3288
     24 N7         -1.2514    3.4689   -0.8989 N.pl3     1 ACP        -0.5338
     25 C5         -0.5826    4.4323   -0.2272 C.ar      1 ACP        -0.2581
     26 C6         -0.7636    5.7789   -0.1086 C.ar      1 ACP         0.7413
     27 N6         -1.8382    6.3927   -0.7843 N.pl3     1 ACP        -0.9512
     28 N1          0.0741    6.5233    0.6461 N.ar      1 ACP        -0.7699
     29 C2          1.0845    5.8486    1.2626 C.ar      1 ACP         0.6898
     30 N3          1.3516    4.5236    1.2116 N.ar      1 ACP        -0.6800
     31 C4          0.4827    3.8546    0.4481 C.ar      1 ACP         0.6129
     32 HOG3        1.8837    6.4598   -6.3548 H         1 ACP         0.4199
     33 H3B1        0.1529    3.8254   -3.2078 H         1 ACP         0.0672
     34 H3B2        1.1257    5.2803   -2.9725 H         1 ACP         0.0672
     35 H5'1        1.3500    0.2325   -2.1560 H         1 ACP         0.0277
     36 H5'2        2.1267   -1.3683   -2.0444 H         1 ACP         0.0277
     37 H4'         3.8050   -0.1388   -0.4008 H         1 ACP         0.1249
     38 H3'         1.6784   -1.7629    0.2714 H         1 ACP         0.0564
     39 HO3'        2.2232   -1.2979    2.3953 H         1 ACP         0.4511
     40 H2'        -0.0011    0.0027    0.0003 H         1 ACP         0.0716
     41 HO2'       -0.6141    0.5574    2.1082 H         1 ACP         0.4454
     42 H1'         1.7826    1.9024    1.6451 H         1 ACP         0.1310
     43 H8         -0.8833    1.3888   -1.0158 H         1 ACP         0.3565
     44 HN61       -2.4225    5.8385   -1.3773 H         1 ACP         0.4414
     45 HN62       -1.9421    7.3862   -0.7348 H         1 ACP         0.4414
     46 H2          1.7546    6.4491    1.8670 H         1 ACP         0.0676
     47 H47        -2.0705    3.5612   -1.4834 H         1 ACP         0.5052
@<TRIPOS>BOND
     1    1    2 2
     2    1    3 1
     3    1    4 1
     4    1    8 1
     5    4   32 1
     6    5    6 2
     7    5    7 1
     8    5    8 1
     9    5   12 1
    10    8   33 1
    11    8   34 1
    12    9   10 2
    13    9   11 1
    14    9   12 1
    15    9   13 1
    16   13   14 1
    17   14   15 1
    18   14   35 1
    19   14   36 1
    20   15   16 1
    21   15   17 1
    22   15   37 1
    23   16   21 1
    24   17   18 1
    25   17   19 1
    26   17   38 1
    27   18   39 1
    28   19   20 1
    29   19   21 1
    30   19   40 1
    31   20   41 1
    32   21   22 1
    33   21   42 1
    34   22   23 ar
    35   22   31 ar
    36   23   24 ar
    37   23   43 1
    38   24   25 ar
    39   24   47 1
    40   25   26 ar
    41   25   31 ar
    42   26   27 1
    43   26   28 ar
    44   27   44 1
    45   27   45 1
    46   28   29 ar
    47   29   30 ar
    48   29   46 1
    49   30   31 ar
@<TRIPOS>SUBSTRUCTURE
     1 ACP         1 GROUP 0 A     ****
@<TRIPOS>MOLECULE
[[5-(6-amino-7,8-dihydropurin-8-ylium-9-yl)-3,4-dihydroxy-tetrahydrofuran-2-yl]methoxy-oxido-phosphoryl]oxy-[[hydroxy(oxido)phosphoryl]methyl]phosphinate
   47    49     1     0     0
SMALL
USER_CHARGES

@<TRIPOS>ATOM
      1 PG         -3.4315   -0.1474    3.3431 P.3       1 ACP         1.3755
      2 O1G        -2.5012   -0.9163    2.4342 O.co2     1 ACP        -0.8970
      3 O2G        -3.9086    1.2475    3.0104 O.co2     1 ACP        -0.8970
      4 O3G        -4.7143   -1.0811    3.7207 O.3       1 ACP        -0.7959
      5 PB         -2.2313   -1.5836    6.0024 P.3       1 ACP         1.5194
      6 O1B        -3.5187   -2.3366    6.2443 O.co2     1 ACP        -0.8958
      7 O2B        -1.3325   -1.1427    7.1347 O.co2     1 ACP        -0.8958
      8 C3B        -2.6490   -0.0788    5.0150 C.3       1 ACP        -0.5612
      9 PA         -0.7235   -3.8665    4.8526 P.3       1 ACP         1.6019
     10 O1A        -1.8689   -4.8534    4.7912 O.co2     1 ACP        -0.9040
     11 O2A         0.3249   -3.9688    5.9393 O.co2     1 ACP        -0.9040
     12 O3A        -1.3445   -2.3562    4.8734 O.3       1 ACP        -0.8156
     13 O5'         0.0099   -3.8403    3.3910 O.3       1 ACP        -0.5465
     14 C5'        -0.7840   -3.8935    2.2172 C.3       1 ACP         0.2108
     15 C4'        -0.0724   -3.1466    1.1027 C.3       1 ACP         0.0552
     16 O4'        -0.8674   -3.1929   -0.0945 O.3       1 ACP        -0.3428
     17 C3'         0.1338   -1.6715    1.4027 C.3       1 ACP         0.0750
     18 O3'         1.2893   -1.4445    2.1808 O.3       1 ACP        -0.6066
     19 C2'         0.2158   -1.0724    0.0128 C.3       1 ACP         0.1185
     20 O2'         1.5141   -1.2448   -0.5513 O.3       1 ACP        -0.5858
     21 C1'        -0.7897   -1.9176   -0.7583 C.3       1 ACP         0.3826
     22 N9         -2.1040   -1.3333   -0.7704 N.pl3     1 ACP        -0.5729
     23 C8         -3.2304   -1.8262   -0.2767 C.ar      1 ACP         0.3288
     24 N7         -4.2847   -1.0309   -0.4481 N.pl3     1 ACP        -0.5338
     25 C5         -3.7951    0.0479   -1.0985 C.ar      1 ACP        -0.2581
     26 C6         -4.3691    1.1983   -1.5536 C.ar      1 ACP         0.7413
     27 N6         -5.7501    1.4047   -1.3573 N.pl3     1 ACP        -0.9512
     28 N1         -3.6289    2.1345   -2.1869 N.ar      1 ACP        -0.7699
     29 C2         -2.3041    1.8525   -2.3333 C.ar      1 ACP         0.6898
     30 N3         -1.6387    0.7492   -1.9218 N.ar      1 ACP        -0.6800
     31 C4         -2.4348   -0.1293   -1.3053 C.ar      1 ACP         0.6129
     32 HOG3       -5.2861   -1.4068    2.9933 H         1 ACP         0.4199
     33 H3B1       -3.3170    0.5263    5.6378 H         1 ACP         0.0672
     34 H3B2       -1.7133    0.4796    4.9001 H         1 ACP         0.0672
     35 H5'1       -0.9358   -4.9414    1.9395 H         1 ACP         0.0277
     36 H5'2       -1.7558   -3.4349    2.4258 H         1 ACP         0.0277
     37 H4'         0.8886   -3.6447    0.8779 H         1 ACP         0.1249
     38 H3'        -0.7373   -1.2359    1.9870 H         1 ACP         0.0564
     39 HO3'        1.1626   -1.9325    3.0084 H         1 ACP         0.4511
     40 H2'        -0.0384   -0.0310    0.0096 H         1 ACP         0.0716
     41 HO2'        2.1463   -0.7958    0.0370 H         1 ACP         0.4454
     42 H1'        -0.4769   -2.1002   -1.8093 H         1 ACP         0.1310
     43 H8         -3.2974   -2.7789    0.2194 H         1 ACP         0.3565
     44 HN61       -6.1609    2.2686   -1.6490 H         1 ACP         0.4414
     45 HN62       -6.2772    0.7257   -0.8460 H         1 ACP         0.4414
     46 H2         -1.7135    2.6057   -2.8421 H         1 ACP         0.0676
     47 H47        -5.2337   -1.2102   -0.1507 H         1 ACP         0.5052
@<TRIPOS>BOND
     1    1    2 2
     2    1    3 1
     3    1    4 1
     4    1    8 1
     5    4   32 1
     6    5    6 2
     7    5    7 1
     8    5    8 1
     9    5   12 1
    10    8   33 1
    11    8   34 1
    12    9   10 2
    13    9   11 1
    14    9   12 1
    15    9   13 1
    16   13   14 1
    17   14   15 1
    18   14   35 1
    19   14   36 1
    20   15   16 1
    21   15   17 1
    22   15   37 1
    23   16   21 1
    24   17   18 1
    25   17   19 1
    26   17   38 1
    27   18   39 1
    28   19   20 1
    29   19   21 1
    30   19   40 1
    31   20   41 1
    32   21   22 1
    33   21   42 1
    34   22   23 ar
    35   22   31 ar
    36   23   24 ar
    37   23   43 1
    38   24   25 ar
    39   24   47 1
    40   25   26 ar
    41   25   31 ar
    42   26   27 1
    43   26   28 ar
    44   27   44 1
    45   27   45 1
    46   28   29 ar
    47   29   30 ar
    48   29   46 1
    49   30   31 ar
@<TRIPOS>SUBSTRUCTURE
     1 ACP         1 GROUP 0 A     ****
@<TRIPOS>MOLECULE
[[5-(6-amino-7,8-dihydropurin-8-ylium-9-yl)-3,4-dihydroxy-tetrahydrofuran-2-yl]methoxy-oxido-phosphoryl]oxy-[[hydroxy(oxido)phosphoryl]methyl]phosphinate
   47    49     1     0     0
SMALL
USER_CHARGES

@<TRIPOS>ATOM
      1 PG          3.9323   -4.1420    2.2825 P.3       1 ACP         1.3755
      2 O1G         2.6199   -3.5508    1.8233 O.co2     1 ACP        -0.8970
      3 O2G         5.2616   -3.6578    1.7507 O.co2     1 ACP        -0.8970
      4 O3G         3.9774   -4.1607    3.9127 O.3       1 ACP        -0.7959
      5 PB          2.5919   -7.0628    2.7804 P.3       1 ACP         1.5194
      6 O1B         2.7596   -6.9460    4.2773 O.co2     1 ACP        -0.8958
      7 O2B         2.6476   -8.3935    2.0661 O.co2     1 ACP        -0.8958
      8 C3B         3.8546   -5.9652    1.9960 C.3       1 ACP        -0.5612
      9 PA         -0.3084   -6.4368    2.7224 P.3       1 ACP         1.6019
     10 O1A        -0.4652   -6.0746    4.1832 O.co2     1 ACP        -0.9040
     11 O2A        -0.7823   -7.7780    2.2055 O.co2     1 ACP        -0.9040
     12 O3A         1.2604   -6.2482    2.3095 O.3       1 ACP        -0.8156
     13 O5'        -0.9728   -5.2427    1.8237 O.3       1 ACP        -0.5465
     14 C5'        -0.7840   -3.8935    2.2172 C.3       1 ACP         0.2108
     15 C4'        -0.0724   -3.1466    1.1027 C.3       1 ACP         0.0552
     16 O4'        -0.8674   -3.1929   -0.0945 O.3       1 ACP        -0.3428
     17 C3'         0.1338   -1.6715    1.4027 C.3       1 ACP         0.0750
     18 O3'         1.2893   -1.4445    2.1808 O.3       1 ACP        -0.6066
     19 C2'         0.2158   -1.0724    0.0128 C.3       1 ACP         0.1185
     20 O2'         1.5141   -1.2448   -0.5513 O.3       1 ACP        -0.5858
     21 C1'        -0.7897   -1.9176   -0.7583 C.3       1 ACP         0.3826
     22 N9         -2.1040   -1.3333   -0.7704 N.pl3     1 ACP        -0.5729
     23 C8         -3.2304   -1.8262   -0.2767 C.ar      1 ACP         0.3288
     24 N7         -4.2847   -1.0309   -0.4481 N.pl3     1 ACP        -0.5338
     25 C5         -3.7951    0.0479   -1.0985 C.ar      1 ACP        -0.2581
     26 C6         -4.3691    1.1983   -1.5536 C.ar      1 ACP         0.7413
     27 N6         -5.7501    1.4047   -1.3573 N.pl3     1 ACP        -0.9512
     28 N1         -3.6289    2.1345   -2.1869 N.ar      1 ACP        -0.7699
     29 C2         -2.3041    1.8525   -2.3333 C.ar      1 ACP         0.6898
     30 N3         -1.6387    0.7492   -1.9218 N.ar      1 ACP        -0.6800
     31 C4         -2.4348   -0.1293   -1.3053 C.ar      1 ACP         0.6129
     32 HOG3        3.9044   -3.3082    4.3924 H         1 ACP         0.4199
     33 H3B1        4.8341   -6.3601    2.2878 H         1 ACP         0.0672
     34 H3B2        3.7529   -6.1082    0.9145 H         1 ACP         0.0672
     35 H5'1       -1.7614   -3.4427    2.4167 H         1 ACP         0.0277
     36 H5'2       -0.1870   -3.8723    3.1344 H         1 ACP         0.0277
     37 H4'         0.8886   -3.6447    0.8779 H         1 ACP         0.1249
     38 H3'        -0.7373   -1.2359    1.9870 H         1 ACP         0.0564
     39 HO3'        1.3408   -0.4870    2.3219 H         1 ACP         0.4511
     40 H2'        -0.0384   -0.0310    0.0096 H         1 ACP         0.0716
     41 HO2'        2.1463   -0.7958    0.0370 H         1 ACP         0.4454
     42 H1'        -0.4769   -2.1002   -1.8093 H         1 ACP         0.1310
     43 H8         -3.2974   -2.7789    0.2194 H         1 ACP         0.3565
     44 HN61       -6.2956    0.6838   -0.9296 H         1 ACP         0.4414
     45 HN62       -6.1788    2.2266   -1.7327 H         1 ACP         0.4414
     46 H2         -1.7135    2.6057   -2.8421 H         1 ACP         0.0676
     47 H47        -5.2337   -1.2102   -0.1507 H         1 ACP         0.5052
@<TRIPOS>BOND
     1    1    2 2
     2    1    3 1
     3    1    4 1
     4    1    8 1
     5    4   32 1
     6    5    6 2
     7    5    7 1
     8    5    8 1
     9    5   12 1
    10    8   33 1
    11    8   34 1
    12    9   10 2
    13    9   11 1
    14    9   12 1
    15    9   13 1
    16   13   14 1
    17   14   15 1
    18   14   35 1
    19   14   36 1
    20   15   16 1
    21   15   17 1
    22   15   37 1
    23   16   21 1
    24   17   18 1
    25   17   19 1
    26   17   38 1
    27   18   39 1
    28   19   20 1
    29   19   21 1
    30   19   40 1
    31   20   41 1
    32   21   22 1
    33   21   42 1
    34   22   23 ar
    35   22   31 ar
    36   23   24 ar
    37   23   43 1
    38   24   25 ar
    39   24   47 1
    40   25   26 ar
    41   25   31 ar
    42   26   27 1
    43   26   28 ar
    44   27   44 1
    45   27   45 1
    46   28   29 ar
    47   29   30 ar
    48   29   46 1
    49   30   31 ar
@<TRIPOS>SUBSTRUCTURE
     1 ACP         1 GROUP 0 A     ****
