@<TRIPOS>MOLECULE
[[5-(6-aminopurin-9-yl)-3,4-dihydroxy-tetrahydrofuran-2-yl]methoxy-oxido-phosphoryl]oxy-(phosphonomethyl)phosphinate
   47    49     1     0     0
SMALL
USER_CHARGES

@<TRIPOS>ATOM
      1 PG         -3.4032    1.2385   -2.5283 P.3       1 ACP         1.6478
      2 O1G        -2.2324    0.9025   -1.6545 O.2       1 ACP        -0.9103
      3 O2G        -4.1487   -0.0247   -3.2058 O.3       1 ACP        -0.7989
      4 O3G        -3.0776    2.2040   -3.7819 O.3       1 ACP        -0.7989
      5 PB         -4.5197    3.7423   -0.8508 P.3       1 ACP         1.4947
      6 O1B        -5.8555    4.1324   -0.2616 O.co2     1 ACP        -0.8554
      7 O2B        -3.7702    4.6349   -1.8126 O.co2     1 ACP        -0.8554
      8 C3B        -4.7433    2.1039   -1.6793 C.3       1 ACP        -0.6550
      9 PA         -2.9648    4.0418    1.6589 P.3       1 ACP         1.5921
     10 O1A        -4.1350    4.3296    2.5746 O.co2     1 ACP        -0.8561
     11 O2A        -2.0534    5.1587    1.1987 O.co2     1 ACP        -0.8561
     12 O3A        -3.5204    3.2528    0.3412 O.3       1 ACP        -0.8166
     13 O5'        -2.0402    2.8619    2.3132 O.3       1 ACP        -0.5737
     14 C5'        -0.8811    2.4285    1.6206 C.3       1 ACP         0.2197
     15 C4'        -0.1994    1.3333    2.4288 C.3       1 ACP         0.0944
     16 O4'        -1.1285    0.2356    2.5840 O.3       1 ACP        -0.4017
     17 C3'         1.0324    0.7610    1.7344 C.3       1 ACP         0.0859
     18 O3'         1.9175    0.2377    2.7247 O.3       1 ACP        -0.5941
     19 C2'         0.4468   -0.3802    0.9263 C.3       1 ACP         0.0924
     20 O2'         1.3993   -1.3703    0.5961 O.3       1 ACP        -0.5928
     21 C1'        -0.6159   -0.9100    1.8769 C.3       1 ACP         0.3967
     22 N9         -1.7127   -1.6108    1.2130 N.pl3     1 ACP        -0.6763
     23 C8         -2.8641   -1.0399    0.7392 C.ar      1 ACP         0.5586
     24 N7         -3.6659   -1.9257    0.1858 N.2       1 ACP        -0.5795
     25 C5         -3.0053   -3.1223    0.3069 C.ar      1 ACP        -0.2116
     26 C6         -3.3321   -4.4178   -0.0813 C.ar      1 ACP         0.7185
     27 N6         -4.5476   -4.6866   -0.7335 N.pl3     1 ACP        -0.9442
     28 N1         -2.4608   -5.4225    0.1773 N.ar      1 ACP        -0.8040
     29 C2         -1.3053   -5.1020    0.8081 C.ar      1 ACP         0.6560
     30 N3         -0.8788   -3.8921    1.2315 N.ar      1 ACP        -0.7058
     31 C4         -1.7870   -2.9477    0.9438 C.ar      1 ACP         0.5729
     32 HOG2       -3.6386   -0.6140   -3.8012 H         1 ACP         0.4440
     33 HOG3       -2.4264    1.9081   -4.4530 H         1 ACP         0.4440
     34 H3B1       -5.5545    2.2478   -2.4018 H         1 ACP         0.1084
     35 H3B2       -5.1215    1.4264   -0.9052 H         1 ACP         0.1084
     36 H5'1       -1.1771    2.0504    0.6370 H         1 ACP         0.0281
     37 H5'2       -0.2083    3.2816    1.4878 H         1 ACP         0.0281
     38 H4'         0.0403    1.7078    3.4343 H         1 ACP         0.1082
     39 H3'         1.5906    1.4859    1.1353 H         1 ACP         0.0650
     40 HO3'        2.6839   -0.1150    2.2479 H         1 ACP         0.4300
     41 H2'        -0.0017    0.0018    0.0005 H         1 ACP         0.0785
     42 HO2'        2.0953   -0.9375    0.0709 H         1 ACP         0.4275
     43 H1'        -0.1998   -1.6319    2.6178 H         1 ACP         0.1009
     44 H8         -3.0609    0.0200    0.8250 H         1 ACP         0.1067
     45 HN61       -5.2046   -3.9433   -0.8775 H         1 ACP         0.4213
     46 HN62       -4.7849   -5.6332   -0.9625 H         1 ACP         0.4213
     47 H2         -0.6318   -5.9307    0.9993 H         1 ACP         0.0365
@<TRIPOS>BOND
     1    1    2 2
     2    1    3 1
     3    1    4 1
     4    1    8 1
     5    3   32 1
     6    4   33 1
     7    5    6 2
     8    5    7 1
     9    5    8 1
    10    5   12 1
    11    8   34 1
    12    8   35 1
    13    9   10 2
    14    9   11 1
    15    9   12 1
    16    9   13 1
    17   13   14 1
    18   14   15 1
    19   14   36 1
    20   14   37 1
    21   15   16 1
    22   15   17 1
    23   15   38 1
    24   16   21 1
    25   17   18 1
    26   17   19 1
    27   17   39 1
    28   18   40 1
    29   19   20 1
    30   19   21 1
    31   19   41 1
    32   20   42 1
    33   21   22 1
    34   21   43 1
    35   22   23 ar
    36   22   31 ar
    37   23   24 ar
    38   23   44 1
    39   24   25 ar
    40   25   26 ar
    41   25   31 ar
    42   26   27 1
    43   26   28 ar
    44   27   45 1
    45   27   46 1
    46   28   29 ar
    47   29   30 ar
    48   29   47 1
    49   30   31 ar
@<TRIPOS>SUBSTRUCTURE
     1 ACP         1 GROUP 0 A     ****
@<TRIPOS>MOLECULE
[[5-(6-aminopurin-9-yl)-3,4-dihydroxy-tetrahydrofuran-2-yl]methoxy-oxido-phosphoryl]oxy-(phosphonomethyl)phosphinate
   47    49     1     0     0
SMALL
USER_CHARGES

@<TRIPOS>ATOM
      1 PG          1.2859    6.5428    1.6973 P.3       1 ACP         1.6478
      2 O1G         2.2125    5.6904    2.5111 O.2       1 ACP        -0.9103
      3 O2G         0.6707    5.8373    0.3805 O.3       1 ACP        -0.7989
      4 O3G         1.9245    7.9139    1.1299 O.3       1 ACP        -0.7989
      5 PB         -1.4223    5.9530    3.3244 P.3       1 ACP         1.4947
      6 O1B        -2.4907    6.7992    3.9771 O.co2     1 ACP        -0.8554
      7 O2B        -0.6565    4.8937    4.0827 O.co2     1 ACP        -0.8554
      8 C3B        -0.1810    7.1094    2.5875 C.3       1 ACP        -0.6550
      9 PA         -2.9648    4.0418    1.6589 P.3       1 ACP         1.5921
     10 O1A        -3.0690    3.8284    0.1642 O.co2     1 ACP        -0.8561
     11 O2A        -4.2106    4.1925    2.5047 O.co2     1 ACP        -0.8561
     12 O3A        -1.9968    5.3287    1.9318 O.3       1 ACP        -0.8166
     13 O5'        -2.0402    2.8619    2.3132 O.3       1 ACP        -0.5737
     14 C5'        -0.8811    2.4285    1.6206 C.3       1 ACP         0.2197
     15 C4'        -0.1994    1.3333    2.4288 C.3       1 ACP         0.0944
     16 O4'        -1.1285    0.2356    2.5840 O.3       1 ACP        -0.4017
     17 C3'         1.0324    0.7610    1.7344 C.3       1 ACP         0.0859
     18 O3'         1.9175    0.2377    2.7247 O.3       1 ACP        -0.5941
     19 C2'         0.4468   -0.3802    0.9263 C.3       1 ACP         0.0924
     20 O2'         1.3993   -1.3703    0.5961 O.3       1 ACP        -0.5928
     21 C1'        -0.6159   -0.9100    1.8769 C.3       1 ACP         0.3967
     22 N9         -1.7127   -1.6108    1.2130 N.pl3     1 ACP        -0.6763
     23 C8         -1.7712   -2.9546    0.9544 C.ar      1 ACP         0.5586
     24 N7         -2.8883   -3.2948    0.3462 N.2       1 ACP        -0.5795
     25 C5         -3.5834   -2.1202    0.2043 C.ar      1 ACP        -0.2116
     26 C6         -4.8225   -1.8251   -0.3554 C.ar      1 ACP         0.7185
     27 N6         -5.6154   -2.8394   -0.9189 N.pl3     1 ACP        -0.9442
     28 N1         -5.2589   -0.5425   -0.3507 N.ar      1 ACP        -0.8040
     29 C2         -4.4510    0.3913    0.2069 C.ar      1 ACP         0.6560
     30 N3         -3.2368    0.2296    0.7767 N.ar      1 ACP        -0.7058
     31 C4         -2.8684   -1.0596    0.7376 C.ar      1 ACP         0.5729
     32 HOG2        1.2822    5.5151   -0.3154 H         1 ACP         0.4440
     33 HOG3        2.7012    7.8650    0.5329 H         1 ACP         0.4440
     34 H3B1        0.1580    7.7432    3.4147 H         1 ACP         0.1084
     35 H3B2       -0.7427    7.7533    1.9012 H         1 ACP         0.1084
     36 H5'1       -1.1771    2.0504    0.6370 H         1 ACP         0.0281
     37 H5'2       -0.2083    3.2816    1.4878 H         1 ACP         0.0281
     38 H4'         0.0403    1.7078    3.4343 H         1 ACP         0.1082
     39 H3'         1.5906    1.4859    1.1353 H         1 ACP         0.0650
     40 HO3'        2.6839   -0.1150    2.2479 H         1 ACP         0.4300
     41 H2'        -0.0017    0.0018    0.0005 H         1 ACP         0.0785
     42 HO2'        2.0953   -0.9375    0.0709 H         1 ACP         0.4275
     43 H1'        -0.1998   -1.6319    2.6178 H         1 ACP         0.1009
     44 H8         -0.9745   -3.6312    1.2318 H         1 ACP         0.1067
     45 HN61       -5.2619   -3.7766   -0.9586 H         1 ACP         0.4213
     46 HN62       -6.4834   -2.5990   -1.3590 H         1 ACP         0.4213
     47 H2         -4.8317    1.4071    0.1930 H         1 ACP         0.0365
@<TRIPOS>BOND
     1    1    2 2
     2    1    3 1
     3    1    4 1
     4    1    8 1
     5    3   32 1
     6    4   33 1
     7    5    6 2
     8    5    7 1
     9    5    8 1
    10    5   12 1
    11    8   34 1
    12    8   35 1
    13    9   10 2
    14    9   11 1
    15    9   12 1
    16    9   13 1
    17   13   14 1
    18   14   15 1
    19   14   36 1
    20   14   37 1
    21   15   16 1
    22   15   17 1
    23   15   38 1
    24   16   21 1
    25   17   18 1
    26   17   19 1
    27   17   39 1
    28   18   40 1
    29   19   20 1
    30   19   21 1
    31   19   41 1
    32   20   42 1
    33   21   22 1
    34   21   43 1
    35   22   23 ar
    36   22   31 ar
    37   23   24 ar
    38   23   44 1
    39   24   25 ar
    40   25   26 ar
    41   25   31 ar
    42   26   27 1
    43   26   28 ar
    44   27   45 1
    45   27   46 1
    46   28   29 ar
    47   29   30 ar
    48   29   47 1
    49   30   31 ar
@<TRIPOS>SUBSTRUCTURE
     1 ACP         1 GROUP 0 A     ****
@<TRIPOS>MOLECULE
[[5-(6-aminopurin-9-yl)-3,4-dihydroxy-tetrahydrofuran-2-yl]methoxy-oxido-phosphoryl]oxy-(phosphonomethyl)phosphinate
   47    49     1     0     0
SMALL
USER_CHARGES

@<TRIPOS>ATOM
      1 PG         -5.9875    1.2405    0.6441 P.3       1 ACP         1.6478
      2 O1G        -6.5216   -0.0340    0.0630 O.2       1 ACP        -0.9103
      3 O2G        -4.6820    1.0818    1.5826 O.3       1 ACP        -0.7989
      4 O3G        -7.0219    2.0669    1.5696 O.3       1 ACP        -0.7989
      5 PB         -4.7748    4.1140   -0.1321 P.3       1 ACP         1.4947
      6 O1B        -5.8294    4.8379    0.6724 O.co2     1 ACP        -0.8554
      7 O2B        -4.1671    4.7047   -1.3832 O.co2     1 ACP        -0.8554
      8 C3B        -5.4690    2.4603   -0.5842 C.3       1 ACP        -0.6550
      9 PA         -2.5927    4.4187    1.8559 P.3       1 ACP         1.5921
     10 O1A        -3.4214    5.0525    2.9523 O.co2     1 ACP        -0.8561
     11 O2A        -1.6640    5.2600    1.0075 O.co2     1 ACP        -0.8561
     12 O3A        -3.5926    3.5929    0.8630 O.3       1 ACP        -0.8166
     13 O5'        -1.7337    3.1724    2.4754 O.3       1 ACP        -0.5737
     14 C5'        -0.8811    2.4285    1.6206 C.3       1 ACP         0.2197
     15 C4'        -0.1994    1.3333    2.4288 C.3       1 ACP         0.0944
     16 O4'        -1.1285    0.2356    2.5840 O.3       1 ACP        -0.4017
     17 C3'         1.0324    0.7610    1.7344 C.3       1 ACP         0.0859
     18 O3'         1.9175    0.2377    2.7247 O.3       1 ACP        -0.5941
     19 C2'         0.4468   -0.3802    0.9263 C.3       1 ACP         0.0924
     20 O2'         1.3993   -1.3703    0.5961 O.3       1 ACP        -0.5928
     21 C1'        -0.6159   -0.9100    1.8769 C.3       1 ACP         0.3967
     22 N9         -1.7127   -1.6108    1.2130 N.pl3     1 ACP        -0.6763
     23 C8         -2.5476   -1.0844    0.2632 C.ar      1 ACP         0.5586
     24 N7         -3.4391   -1.9591   -0.1536 N.2       1 ACP        -0.5795
     25 C5         -3.1701   -3.1016    0.5574 C.ar      1 ACP        -0.2116
     26 C6         -3.7593   -4.3620    0.5656 C.ar      1 ACP         0.7185
     27 N6         -4.8512   -4.6493   -0.2712 N.pl3     1 ACP        -0.9442
     28 N1         -3.2659   -5.3144    1.3932 N.ar      1 ACP        -0.8040
     29 C2         -2.2122   -4.9785    2.1759 C.ar      1 ACP         0.6560
     30 N3         -1.5595   -3.7985    2.2572 N.ar      1 ACP        -0.7058
     31 C4         -2.0986   -2.9054    1.4140 C.ar      1 ACP         0.5729
     32 HOG2       -4.7402    0.5237    2.3870 H         1 ACP         0.4440
     33 HOG3       -7.3883    1.6384    2.3722 H         1 ACP         0.4440
     34 H3B1       -4.7126    1.9879   -1.2211 H         1 ACP         0.1084
     35 H3B2       -6.3387    2.6645   -1.2190 H         1 ACP         0.1084
     36 H5'1       -1.4802    1.9929    0.8148 H         1 ACP         0.0281
     37 H5'2       -0.1370    3.1043    1.1873 H         1 ACP         0.0281
     38 H4'         0.0403    1.7078    3.4343 H         1 ACP         0.1082
     39 H3'         1.5906    1.4859    1.1353 H         1 ACP         0.0650
     40 HO3'        2.6839   -0.1150    2.2479 H         1 ACP         0.4300
     41 H2'        -0.0017    0.0018    0.0005 H         1 ACP         0.0785
     42 HO2'        2.0953   -0.9375    0.0709 H         1 ACP         0.4275
     43 H1'        -0.1998   -1.6319    2.6178 H         1 ACP         0.1009
     44 H8         -2.4576   -0.0639   -0.0831 H         1 ACP         0.1067
     45 HN61       -5.2371   -3.9234   -0.8448 H         1 ACP         0.4213
     46 HN62       -5.2909   -5.5485   -0.2160 H         1 ACP         0.4213
     47 H2         -1.8433   -5.7650    2.8259 H         1 ACP         0.0365
@<TRIPOS>BOND
     1    1    2 2
     2    1    3 1
     3    1    4 1
     4    1    8 1
     5    3   32 1
     6    4   33 1
     7    5    6 2
     8    5    7 1
     9    5    8 1
    10    5   12 1
    11    8   34 1
    12    8   35 1
    13    9   10 2
    14    9   11 1
    15    9   12 1
    16    9   13 1
    17   13   14 1
    18   14   15 1
    19   14   36 1
    20   14   37 1
    21   15   16 1
    22   15   17 1
    23   15   38 1
    24   16   21 1
    25   17   18 1
    26   17   19 1
    27   17   39 1
    28   18   40 1
    29   19   20 1
    30   19   21 1
    31   19   41 1
    32   20   42 1
    33   21   22 1
    34   21   43 1
    35   22   23 ar
    36   22   31 ar
    37   23   24 ar
    38   23   44 1
    39   24   25 ar
    40   25   26 ar
    41   25   31 ar
    42   26   27 1
    43   26   28 ar
    44   27   45 1
    45   27   46 1
    46   28   29 ar
    47   29   30 ar
    48   29   47 1
    49   30   31 ar
@<TRIPOS>SUBSTRUCTURE
     1 ACP         1 GROUP 0 A     ****
@<TRIPOS>MOLECULE
[[5-(6-aminopurin-9-yl)-3,4-dihydroxy-tetrahydrofuran-2-yl]methoxy-oxido-phosphoryl]oxy-(phosphonomethyl)phosphinate
   47    49     1     0     0
SMALL
USER_CHARGES

@<TRIPOS>ATOM
      1 PG          1.2859    6.5428    1.6973 P.3       1 ACP         1.6478
      2 O1G         2.2125    5.6904    2.5111 O.2       1 ACP        -0.9103
      3 O2G         0.6707    5.8373    0.3805 O.3       1 ACP        -0.7989
      4 O3G         1.9245    7.9139    1.1299 O.3       1 ACP        -0.7989
      5 PB         -1.4223    5.9530    3.3244 P.3       1 ACP         1.4947
      6 O1B        -2.4907    6.7992    3.9771 O.co2     1 ACP        -0.8554
      7 O2B        -0.6565    4.8937    4.0827 O.co2     1 ACP        -0.8554
      8 C3B        -0.1810    7.1094    2.5875 C.3       1 ACP        -0.6550
      9 PA         -2.9648    4.0418    1.6589 P.3       1 ACP         1.5921
     10 O1A        -3.0690    3.8284    0.1642 O.co2     1 ACP        -0.8561
     11 O2A        -4.2106    4.1925    2.5047 O.co2     1 ACP        -0.8561
     12 O3A        -1.9968    5.3287    1.9318 O.3       1 ACP        -0.8166
     13 O5'        -2.0402    2.8619    2.3132 O.3       1 ACP        -0.5737
     14 C5'        -0.8811    2.4285    1.6206 C.3       1 ACP         0.2197
     15 C4'        -0.1994    1.3333    2.4288 C.3       1 ACP         0.0944
     16 O4'        -1.1285    0.2356    2.5840 O.3       1 ACP        -0.4017
     17 C3'         1.0324    0.7610    1.7344 C.3       1 ACP         0.0859
     18 O3'         1.9175    0.2377    2.7247 O.3       1 ACP        -0.5941
     19 C2'         0.4468   -0.3802    0.9263 C.3       1 ACP         0.0924
     20 O2'         1.3993   -1.3703    0.5961 O.3       1 ACP        -0.5928
     21 C1'        -0.6159   -0.9100    1.8769 C.3       1 ACP         0.3967
     22 N9         -1.7127   -1.6108    1.2130 N.pl3     1 ACP        -0.6763
     23 C8         -2.8641   -1.0399    0.7392 C.ar      1 ACP         0.5586
     24 N7         -3.6659   -1.9257    0.1858 N.2       1 ACP        -0.5795
     25 C5         -3.0053   -3.1223    0.3069 C.ar      1 ACP        -0.2116
     26 C6         -3.3321   -4.4178   -0.0813 C.ar      1 ACP         0.7185
     27 N6         -4.5476   -4.6866   -0.7335 N.pl3     1 ACP        -0.9442
     28 N1         -2.4608   -5.4225    0.1773 N.ar      1 ACP        -0.8040
     29 C2         -1.3053   -5.1020    0.8081 C.ar      1 ACP         0.6560
     30 N3         -0.8788   -3.8921    1.2315 N.ar      1 ACP        -0.7058
     31 C4         -1.7870   -2.9477    0.9438 C.ar      1 ACP         0.5729
     32 HOG2        1.2822    5.5151   -0.3154 H         1 ACP         0.4440
     33 HOG3        2.7012    7.8650    0.5329 H         1 ACP         0.4440
     34 H3B1        0.1580    7.7432    3.4147 H         1 ACP         0.1084
     35 H3B2       -0.7427    7.7533    1.9012 H         1 ACP         0.1084
     36 H5'1       -1.1771    2.0504    0.6370 H         1 ACP         0.0281
     37 H5'2       -0.2083    3.2816    1.4878 H         1 ACP         0.0281
     38 H4'         0.0403    1.7078    3.4343 H         1 ACP         0.1082
     39 H3'         1.5906    1.4859    1.1353 H         1 ACP         0.0650
     40 HO3'        2.6839   -0.1150    2.2479 H         1 ACP         0.4300
     41 H2'        -0.0017    0.0018    0.0005 H         1 ACP         0.0785
     42 HO2'        2.0953   -0.9375    0.0709 H         1 ACP         0.4275
     43 H1'        -0.1998   -1.6319    2.6178 H         1 ACP         0.1009
     44 H8         -3.0609    0.0200    0.8250 H         1 ACP         0.1067
     45 HN61       -5.2046   -3.9433   -0.8775 H         1 ACP         0.4213
     46 HN62       -4.7849   -5.6332   -0.9625 H         1 ACP         0.4213
     47 H2         -0.6318   -5.9307    0.9993 H         1 ACP         0.0365
@<TRIPOS>BOND
     1    1    2 2
     2    1    3 1
     3    1    4 1
     4    1    8 1
     5    3   32 1
     6    4   33 1
     7    5    6 2
     8    5    7 1
     9    5    8 1
    10    5   12 1
    11    8   34 1
    12    8   35 1
    13    9   10 2
    14    9   11 1
    15    9   12 1
    16    9   13 1
    17   13   14 1
    18   14   15 1
    19   14   36 1
    20   14   37 1
    21   15   16 1
    22   15   17 1
    23   15   38 1
    24   16   21 1
    25   17   18 1
    26   17   19 1
    27   17   39 1
    28   18   40 1
    29   19   20 1
    30   19   21 1
    31   19   41 1
    32   20   42 1
    33   21   22 1
    34   21   43 1
    35   22   23 ar
    36   22   31 ar
    37   23   24 ar
    38   23   44 1
    39   24   25 ar
    40   25   26 ar
    41   25   31 ar
    42   26   27 1
    43   26   28 ar
    44   27   45 1
    45   27   46 1
    46   28   29 ar
    47   29   30 ar
    48   29   47 1
    49   30   31 ar
@<TRIPOS>SUBSTRUCTURE
     1 ACP         1 GROUP 0 A     ****
@<TRIPOS>MOLECULE
[[5-(6-aminopurin-9-yl)-3,4-dihydroxy-tetrahydrofuran-2-yl]methoxy-oxido-phosphoryl]oxy-(phosphonomethyl)phosphinate
   47    49     1     0     0
SMALL
USER_CHARGES

@<TRIPOS>ATOM
      1 PG          3.4937    1.9071   -2.1291 P.3       1 ACP         1.6478
      2 O1G         3.5375    1.9748   -0.6321 O.2       1 ACP        -0.9103
      3 O2G         4.0280    0.5271   -2.7773 O.3       1 ACP        -0.7989
      4 O3G         4.3458    3.0431   -2.8993 O.3       1 ACP        -0.7989
      5 PB          0.7901    3.5852   -2.5817 P.3       1 ACP         1.4947
      6 O1B        -0.5072    3.3553   -3.3217 O.co2     1 ACP        -0.8554
      7 O2B         1.6621    4.7926   -2.8375 O.co2     1 ACP        -0.8554
      8 C3B         1.8397    2.0836   -2.8353 C.3       1 ACP        -0.6550
      9 PA         -0.0885    4.4445    0.1193 P.3       1 ACP         1.5921
     10 O1A        -1.5458    4.6741   -0.2187 O.co2     1 ACP        -0.8561
     11 O2A         0.8596    5.6133    0.2768 O.co2     1 ACP        -0.8561
     12 O3A         0.5414    3.4131   -0.9793 O.3       1 ACP        -0.8166
     13 O5'         0.0182    3.5132    1.4596 O.3       1 ACP        -0.5737
     14 C5'        -0.8811    2.4285    1.6206 C.3       1 ACP         0.2197
     15 C4'        -0.1994    1.3333    2.4288 C.3       1 ACP         0.0944
     16 O4'        -1.1285    0.2356    2.5840 O.3       1 ACP        -0.4017
     17 C3'         1.0324    0.7610    1.7344 C.3       1 ACP         0.0859
     18 O3'         1.9175    0.2377    2.7247 O.3       1 ACP        -0.5941
     19 C2'         0.4468   -0.3802    0.9263 C.3       1 ACP         0.0924
     20 O2'         1.3993   -1.3703    0.5961 O.3       1 ACP        -0.5928
     21 C1'        -0.6159   -0.9100    1.8769 C.3       1 ACP         0.3967
     22 N9         -1.7127   -1.6108    1.2130 N.pl3     1 ACP        -0.6763
     23 C8         -2.8641   -1.0399    0.7392 C.ar      1 ACP         0.5586
     24 N7         -3.6659   -1.9257    0.1858 N.2       1 ACP        -0.5795
     25 C5         -3.0053   -3.1223    0.3069 C.ar      1 ACP        -0.2116
     26 C6         -3.3321   -4.4178   -0.0813 C.ar      1 ACP         0.7185
     27 N6         -4.5476   -4.6866   -0.7335 N.pl3     1 ACP        -0.9442
     28 N1         -2.4608   -5.4225    0.1773 N.ar      1 ACP        -0.8040
     29 C2         -1.3053   -5.1020    0.8081 C.ar      1 ACP         0.6560
     30 N3         -0.8788   -3.8921    1.2315 N.ar      1 ACP        -0.7058
     31 C4         -1.7870   -2.9477    0.9438 C.ar      1 ACP         0.5729
     32 HOG2        4.9535    0.2499   -2.6082 H         1 ACP         0.4440
     33 HOG3        5.3130    3.0971   -2.7460 H         1 ACP         0.4440
     34 H3B1        1.9293    1.9672   -3.9213 H         1 ACP         0.1084
     35 H3B2        1.2448    1.2380   -2.4715 H         1 ACP         0.1084
     36 H5'1       -1.7769    2.7852    2.1386 H         1 ACP         0.0281
     37 H5'2       -1.1652    2.0544    0.6320 H         1 ACP         0.0281
     38 H4'         0.0403    1.7078    3.4343 H         1 ACP         0.1082
     39 H3'         1.5906    1.4859    1.1353 H         1 ACP         0.0650
     40 HO3'        2.6839   -0.1150    2.2479 H         1 ACP         0.4300
     41 H2'        -0.0017    0.0018    0.0005 H         1 ACP         0.0785
     42 HO2'        2.0953   -0.9375    0.0709 H         1 ACP         0.4275
     43 H1'        -0.1998   -1.6319    2.6178 H         1 ACP         0.1009
     44 H8         -3.0609    0.0200    0.8250 H         1 ACP         0.1067
     45 HN61       -5.2046   -3.9433   -0.8775 H         1 ACP         0.4213
     46 HN62       -4.7849   -5.6332   -0.9625 H         1 ACP         0.4213
     47 H2         -0.6318   -5.9307    0.9993 H         1 ACP         0.0365
@<TRIPOS>BOND
     1    1    2 2
     2    1    3 1
     3    1    4 1
     4    1    8 1
     5    3   32 1
     6    4   33 1
     7    5    6 2
     8    5    7 1
     9    5    8 1
    10    5   12 1
    11    8   34 1
    12    8   35 1
    13    9   10 2
    14    9   11 1
    15    9   12 1
    16    9   13 1
    17   13   14 1
    18   14   15 1
    19   14   36 1
    20   14   37 1
    21   15   16 1
    22   15   17 1
    23   15   38 1
    24   16   21 1
    25   17   18 1
    26   17   19 1
    27   17   39 1
    28   18   40 1
    29   19   20 1
    30   19   21 1
    31   19   41 1
    32   20   42 1
    33   21   22 1
    34   21   43 1
    35   22   23 ar
    36   22   31 ar
    37   23   24 ar
    38   23   44 1
    39   24   25 ar
    40   25   26 ar
    41   25   31 ar
    42   26   27 1
    43   26   28 ar
    44   27   45 1
    45   27   46 1
    46   28   29 ar
    47   29   30 ar
    48   29   47 1
    49   30   31 ar
@<TRIPOS>SUBSTRUCTURE
     1 ACP         1 GROUP 0 A     ****
@<TRIPOS>MOLECULE
[[5-(6-aminopurin-9-yl)-3,4-dihydroxy-tetrahydrofuran-2-yl]methoxy-oxido-phosphoryl]oxy-(phosphonomethyl)phosphinate
   47    49     1     0     0
SMALL
USER_CHARGES

@<TRIPOS>ATOM
      1 PG         -1.1819   -3.0607   -2.8632 P.3       1 ACP         1.6478
      2 O1G         0.1077   -3.5539   -3.4470 O.2       1 ACP        -0.9103
      3 O2G        -1.0592   -1.7672   -1.9029 O.3       1 ACP        -0.7989
      4 O3G        -1.9867   -4.1300   -1.9584 O.3       1 ACP        -0.7989
      5 PB         -2.1090   -1.1997   -5.3142 P.3       1 ACP         1.4947
      6 O1B        -3.3572   -1.0736   -6.1566 O.co2     1 ACP        -0.8554
      7 O2B        -0.7457   -1.4365   -5.9216 O.co2     1 ACP        -0.8554
      8 C3B        -2.4088   -2.5520   -4.0885 C.3       1 ACP        -0.6550
      9 PA         -1.9759    1.6544   -4.5128 P.3       1 ACP         1.5921
     10 O1A        -3.2816    2.0899   -5.1421 O.co2     1 ACP        -0.8561
     11 O2A        -0.6544    1.9867   -5.1711 O.co2     1 ACP        -0.8561
     12 O3A        -2.0355    0.0420   -4.2597 O.3       1 ACP        -0.8166
     13 O5'        -1.9208    2.1717   -2.9622 O.3       1 ACP        -0.5737
     14 C5'        -0.7794    1.8744   -2.1748 C.3       1 ACP         0.2197
     15 C4'        -0.9699    2.4597   -0.7819 C.3       1 ACP         0.0944
     16 O4'        -2.1475    1.8640   -0.2014 O.3       1 ACP        -0.4017
     17 C3'         0.1697    2.1347    0.1695 C.3       1 ACP         0.0859
     18 O3'         0.1809    3.0982    1.2223 O.3       1 ACP        -0.5941
     19 C2'        -0.2543    0.7880    0.7187 C.3       1 ACP         0.0924
     20 O2'         0.3606    0.4944    1.9582 O.3       1 ACP        -0.5928
     21 C1'        -1.7682    0.9516    0.8548 C.3       1 ACP         0.3967
     22 N9         -2.5926   -0.2553    0.7436 N.pl3     1 ACP        -0.6763
     23 C8         -3.5599   -0.4866   -0.1983 C.ar      1 ACP         0.5586
     24 N7         -4.1294   -1.6639   -0.0461 N.2       1 ACP        -0.5795
     25 C5         -3.5041   -2.2191    1.0420 C.ar      1 ACP        -0.2116
     26 C6         -3.6604   -3.4390    1.6925 C.ar      1 ACP         0.7185
     27 N6         -4.6108   -4.3735    1.2468 N.pl3     1 ACP        -0.9442
     28 N1         -2.8820   -3.7179    2.7657 N.ar      1 ACP        -0.8040
     29 C2         -1.9837   -2.7784    3.1481 C.ar      1 ACP         0.6560
     30 N3         -1.7408   -1.5668    2.6022 N.ar      1 ACP        -0.7058
     31 C4         -2.5438   -1.3578    1.5483 C.ar      1 ACP         0.5729
     32 HOG2       -0.5032   -1.8250   -1.0969 H         1 ACP         0.4440
     33 HOG3       -1.5528   -4.4988   -1.1599 H         1 ACP         0.4440
     34 H3B1       -2.6690   -3.4353   -4.6828 H         1 ACP         0.1084
     35 H3B2       -3.3102   -2.2613   -3.5370 H         1 ACP         0.1084
     36 H5'1       -0.6602    0.7877   -2.1203 H         1 ACP         0.0281
     37 H5'2        0.1041    2.3072   -2.6545 H         1 ACP         0.0281
     38 H4'        -1.1469    3.5409   -0.8522 H         1 ACP         0.1082
     39 H3'         1.1601    2.1310   -0.2934 H         1 ACP         0.0650
     40 HO3'        0.9173    2.8584    1.8048 H         1 ACP         0.4300
     41 H2'        -0.0024   -0.0091    0.0062 H         1 ACP         0.0785
     42 HO2'        1.3225    0.4909    1.8095 H         1 ACP         0.4275
     43 H1'        -2.0584    1.4255    1.8301 H         1 ACP         0.1009
     44 H8         -3.8030    0.2355   -0.9657 H         1 ACP         0.1067
     45 HN61       -4.6753   -5.2653    1.6999 H         1 ACP         0.4213
     46 HN62       -5.1476   -4.1759    0.4235 H         1 ACP         0.4213
     47 H2         -1.3778   -3.0348    4.0107 H         1 ACP         0.0365
@<TRIPOS>BOND
     1    1    2 2
     2    1    3 1
     3    1    4 1
     4    1    8 1
     5    3   32 1
     6    4   33 1
     7    5    6 2
     8    5    7 1
     9    5    8 1
    10    5   12 1
    11    8   34 1
    12    8   35 1
    13    9   10 2
    14    9   11 1
    15    9   12 1
    16    9   13 1
    17   13   14 1
    18   14   15 1
    19   14   36 1
    20   14   37 1
    21   15   16 1
    22   15   17 1
    23   15   38 1
    24   16   21 1
    25   17   18 1
    26   17   19 1
    27   17   39 1
    28   18   40 1
    29   19   20 1
    30   19   21 1
    31   19   41 1
    32   20   42 1
    33   21   22 1
    34   21   43 1
    35   22   23 ar
    36   22   31 ar
    37   23   24 ar
    38   23   44 1
    39   24   25 ar
    40   25   26 ar
    41   25   31 ar
    42   26   27 1
    43   26   28 ar
    44   27   45 1
    45   27   46 1
    46   28   29 ar
    47   29   30 ar
    48   29   47 1
    49   30   31 ar
@<TRIPOS>SUBSTRUCTURE
     1 ACP         1 GROUP 0 A     ****
@<TRIPOS>MOLECULE
[[5-(6-aminopurin-9-yl)-3,4-dihydroxy-tetrahydrofuran-2-yl]methoxy-oxido-phosphoryl]oxy-(phosphonomethyl)phosphinate
   47    49     1     0     0
SMALL
USER_CHARGES

@<TRIPOS>ATOM
      1 PG         -1.4384    2.3275   -3.6626 P.3       1 ACP         1.6478
      2 O1G        -2.0003    2.3739   -5.0516 O.2       1 ACP        -0.9103
      3 O2G        -0.8457    0.8970   -3.2011 O.3       1 ACP        -0.7989
      4 O3G        -2.4746    2.7073   -2.4829 O.3       1 ACP        -0.7989
      5 PB          0.8133    3.5976   -1.7529 P.3       1 ACP         1.4947
      6 O1B         1.8969    4.6386   -1.9130 O.co2     1 ACP        -0.8554
      7 O2B         1.1069    2.1933   -1.2780 O.co2     1 ACP        -0.8554
      8 C3B        -0.0583    3.4589   -3.3783 C.3       1 ACP        -0.6550
      9 PA         -0.4662    4.8323    0.6228 P.3       1 ACP         1.5921
     10 O1A        -1.9048    5.1484    0.9710 O.co2     1 ACP        -0.8561
     11 O2A         0.6070    5.8922    0.7447 O.co2     1 ACP        -0.8561
     12 O3A        -0.4219    4.2246   -0.8925 O.3       1 ACP        -0.8166
     13 O5'         0.0182    3.5132    1.4596 O.3       1 ACP        -0.5737
     14 C5'        -0.8811    2.4285    1.6206 C.3       1 ACP         0.2197
     15 C4'        -0.1994    1.3333    2.4288 C.3       1 ACP         0.0944
     16 O4'        -1.1285    0.2356    2.5840 O.3       1 ACP        -0.4017
     17 C3'         1.0324    0.7610    1.7344 C.3       1 ACP         0.0859
     18 O3'         1.9175    0.2377    2.7247 O.3       1 ACP        -0.5941
     19 C2'         0.4468   -0.3802    0.9263 C.3       1 ACP         0.0924
     20 O2'         1.3993   -1.3703    0.5961 O.3       1 ACP        -0.5928
     21 C1'        -0.6159   -0.9100    1.8769 C.3       1 ACP         0.3967
     22 N9         -1.7127   -1.6108    1.2130 N.pl3     1 ACP        -0.6763
     23 C8         -1.7712   -2.9546    0.9544 C.ar      1 ACP         0.5586
     24 N7         -2.8883   -3.2948    0.3462 N.2       1 ACP        -0.5795
     25 C5         -3.5834   -2.1202    0.2043 C.ar      1 ACP        -0.2116
     26 C6         -4.8225   -1.8251   -0.3554 C.ar      1 ACP         0.7185
     27 N6         -5.6154   -2.8394   -0.9189 N.pl3     1 ACP        -0.9442
     28 N1         -5.2589   -0.5425   -0.3507 N.ar      1 ACP        -0.8040
     29 C2         -4.4510    0.3913    0.2069 C.ar      1 ACP         0.6560
     30 N3         -3.2368    0.2296    0.7767 N.ar      1 ACP        -0.7058
     31 C4         -2.8684   -1.0596    0.7376 C.ar      1 ACP         0.5729
     32 HOG2       -1.4425    0.1189   -3.1837 H         1 ACP         0.4440
     33 HOG3       -3.2859    2.1675   -2.3710 H         1 ACP         0.4440
     34 H3B1        0.7212    3.2207   -4.1108 H         1 ACP         0.1084
     35 H3B2       -0.4183    4.4674   -3.6116 H         1 ACP         0.1084
     36 H5'1       -1.7769    2.7852    2.1386 H         1 ACP         0.0281
     37 H5'2       -1.1652    2.0544    0.6320 H         1 ACP         0.0281
     38 H4'         0.0403    1.7078    3.4343 H         1 ACP         0.1082
     39 H3'         1.5906    1.4859    1.1353 H         1 ACP         0.0650
     40 HO3'        2.6839   -0.1150    2.2479 H         1 ACP         0.4300
     41 H2'        -0.0017    0.0018    0.0005 H         1 ACP         0.0785
     42 HO2'        2.0953   -0.9375    0.0709 H         1 ACP         0.4275
     43 H1'        -0.1998   -1.6319    2.6178 H         1 ACP         0.1009
     44 H8         -0.9745   -3.6312    1.2318 H         1 ACP         0.1067
     45 HN61       -5.2619   -3.7766   -0.9586 H         1 ACP         0.4213
     46 HN62       -6.4834   -2.5990   -1.3590 H         1 ACP         0.4213
     47 H2         -4.8317    1.4071    0.1930 H         1 ACP         0.0365
@<TRIPOS>BOND
     1    1    2 2
     2    1    3 1
     3    1    4 1
     4    1    8 1
     5    3   32 1
     6    4   33 1
     7    5    6 2
     8    5    7 1
     9    5    8 1
    10    5   12 1
    11    8   34 1
    12    8   35 1
    13    9   10 2
    14    9   11 1
    15    9   12 1
    16    9   13 1
    17   13   14 1
    18   14   15 1
    19   14   36 1
    20   14   37 1
    21   15   16 1
    22   15   17 1
    23   15   38 1
    24   16   21 1
    25   17   18 1
    26   17   19 1
    27   17   39 1
    28   18   40 1
    29   19   20 1
    30   19   21 1
    31   19   41 1
    32   20   42 1
    33   21   22 1
    34   21   43 1
    35   22   23 ar
    36   22   31 ar
    37   23   24 ar
    38   23   44 1
    39   24   25 ar
    40   25   26 ar
    41   25   31 ar
    42   26   27 1
    43   26   28 ar
    44   27   45 1
    45   27   46 1
    46   28   29 ar
    47   29   30 ar
    48   29   47 1
    49   30   31 ar
@<TRIPOS>SUBSTRUCTURE
     1 ACP         1 GROUP 0 A     ****
@<TRIPOS>MOLECULE
[[5-(6-aminopurin-9-yl)-3,4-dihydroxy-tetrahydrofuran-2-yl]methoxy-oxido-phosphoryl]oxy-(phosphonomethyl)phosphinate
   47    49     1     0     0
SMALL
USER_CHARGES

@<TRIPOS>ATOM
      1 PG         -2.6859    3.6959   -2.8657 P.3       1 ACP         1.6478
      2 O1G        -1.7148    4.6418   -3.5057 O.2       1 ACP        -0.9103
      3 O2G        -2.0391    2.6200   -1.8487 O.3       1 ACP        -0.7989
      4 O3G        -3.5416    2.7843   -3.8886 O.3       1 ACP        -0.7989
      5 PB         -3.5712    5.5536   -0.3969 P.3       1 ACP         1.4947
      6 O1B        -4.8870    6.0381    0.1667 O.co2     1 ACP        -0.8554
      7 O2B        -2.4686    6.5035   -0.8035 O.co2     1 ACP        -0.8554
      8 C3B        -3.9592    4.4982   -1.8654 C.3       1 ACP        -0.6550
      9 PA         -2.5401    4.4095    2.1396 P.3       1 ACP         1.5921
     10 O1A        -3.7865    4.6313    2.9690 O.co2     1 ACP        -0.8561
     11 O2A        -1.3389    5.3166    2.2956 O.co2     1 ACP        -0.8561
     12 O3A        -2.9654    4.3827    0.5629 O.3       1 ACP        -0.8166
     13 O5'        -2.0402    2.8619    2.3132 O.3       1 ACP        -0.5737
     14 C5'        -0.8811    2.4285    1.6206 C.3       1 ACP         0.2197
     15 C4'        -0.1994    1.3333    2.4288 C.3       1 ACP         0.0944
     16 O4'        -1.1285    0.2356    2.5840 O.3       1 ACP        -0.4017
     17 C3'         1.0324    0.7610    1.7344 C.3       1 ACP         0.0859
     18 O3'         1.9175    0.2377    2.7247 O.3       1 ACP        -0.5941
     19 C2'         0.4468   -0.3802    0.9263 C.3       1 ACP         0.0924
     20 O2'         1.3993   -1.3703    0.5961 O.3       1 ACP        -0.5928
     21 C1'        -0.6159   -0.9100    1.8769 C.3       1 ACP         0.3967
     22 N9         -1.7127   -1.6108    1.2130 N.pl3     1 ACP        -0.6763
     23 C8         -1.7712   -2.9546    0.9544 C.ar      1 ACP         0.5586
     24 N7         -2.8883   -3.2948    0.3462 N.2       1 ACP        -0.5795
     25 C5         -3.5834   -2.1202    0.2043 C.ar      1 ACP        -0.2116
     26 C6         -4.8225   -1.8251   -0.3554 C.ar      1 ACP         0.7185
     27 N6         -5.6154   -2.8394   -0.9189 N.pl3     1 ACP        -0.9442
     28 N1         -5.2589   -0.5425   -0.3507 N.ar      1 ACP        -0.8040
     29 C2         -4.4510    0.3913    0.2069 C.ar      1 ACP         0.6560
     30 N3         -3.2368    0.2296    0.7767 N.ar      1 ACP        -0.7058
     31 C4         -2.8684   -1.0596    0.7376 C.ar      1 ACP         0.5729
     32 HOG2       -1.3665    1.9913   -2.1869 H         1 ACP         0.4440
     33 HOG3       -3.0668    2.1774   -4.4955 H         1 ACP         0.4440
     34 H3B1       -4.5549    5.1308   -2.5331 H         1 ACP         0.1084
     35 H3B2       -4.6230    3.7072   -1.4983 H         1 ACP         0.1084
     36 H5'1       -1.1771    2.0504    0.6370 H         1 ACP         0.0281
     37 H5'2       -0.2083    3.2816    1.4878 H         1 ACP         0.0281
     38 H4'         0.0403    1.7078    3.4343 H         1 ACP         0.1082
     39 H3'         1.5906    1.4859    1.1353 H         1 ACP         0.0650
     40 HO3'        2.6839   -0.1150    2.2479 H         1 ACP         0.4300
     41 H2'        -0.0017    0.0018    0.0005 H         1 ACP         0.0785
     42 HO2'        2.0953   -0.9375    0.0709 H         1 ACP         0.4275
     43 H1'        -0.1998   -1.6319    2.6178 H         1 ACP         0.1009
     44 H8         -0.9745   -3.6312    1.2318 H         1 ACP         0.1067
     45 HN61       -5.2619   -3.7766   -0.9586 H         1 ACP         0.4213
     46 HN62       -6.4834   -2.5990   -1.3590 H         1 ACP         0.4213
     47 H2         -4.8317    1.4071    0.1930 H         1 ACP         0.0365
@<TRIPOS>BOND
     1    1    2 2
     2    1    3 1
     3    1    4 1
     4    1    8 1
     5    3   32 1
     6    4   33 1
     7    5    6 2
     8    5    7 1
     9    5    8 1
    10    5   12 1
    11    8   34 1
    12    8   35 1
    13    9   10 2
    14    9   11 1
    15    9   12 1
    16    9   13 1
    17   13   14 1
    18   14   15 1
    19   14   36 1
    20   14   37 1
    21   15   16 1
    22   15   17 1
    23   15   38 1
    24   16   21 1
    25   17   18 1
    26   17   19 1
    27   17   39 1
    28   18   40 1
    29   19   20 1
    30   19   21 1
    31   19   41 1
    32   20   42 1
    33   21   22 1
    34   21   43 1
    35   22   23 ar
    36   22   31 ar
    37   23   24 ar
    38   23   44 1
    39   24   25 ar
    40   25   26 ar
    41   25   31 ar
    42   26   27 1
    43   26   28 ar
    44   27   45 1
    45   27   46 1
    46   28   29 ar
    47   29   30 ar
    48   29   47 1
    49   30   31 ar
@<TRIPOS>SUBSTRUCTURE
     1 ACP         1 GROUP 0 A     ****
@<TRIPOS>MOLECULE
[[5-(6-aminopurin-9-yl)-3,4-dihydroxy-tetrahydrofuran-2-yl]methoxy-oxido-phosphoryl]oxy-(phosphonomethyl)phosphinate
   47    49     1     0     0
SMALL
USER_CHARGES

@<TRIPOS>ATOM
      1 PG          0.8504    2.4783   -3.6560 P.3       1 ACP         1.6478
      2 O1G         1.9295    3.2781   -4.3218 O.2       1 ACP        -0.9103
      3 O2G         1.2176    1.9002   -2.1927 O.3       1 ACP        -0.7989
      4 O3G         0.3560    1.1716   -4.4671 O.3       1 ACP        -0.7989
      5 PB         -0.7695    4.9159   -2.3280 P.3       1 ACP         1.4947
      6 O1B        -2.2079    5.3792   -2.3302 O.co2     1 ACP        -0.8554
      7 O2B         0.3687    5.8149   -2.7520 O.co2     1 ACP        -0.8554
      8 C3B        -0.6835    3.3894   -3.3687 C.3       1 ACP        -0.6550
      9 PA         -0.4662    4.8323    0.6228 P.3       1 ACP         1.5921
     10 O1A        -1.9048    5.1484    0.9710 O.co2     1 ACP        -0.8561
     11 O2A         0.6070    5.8922    0.7447 O.co2     1 ACP        -0.8561
     12 O3A        -0.4219    4.2246   -0.8925 O.3       1 ACP        -0.8166
     13 O5'         0.0182    3.5132    1.4596 O.3       1 ACP        -0.5737
     14 C5'        -0.8811    2.4285    1.6206 C.3       1 ACP         0.2197
     15 C4'        -0.1994    1.3333    2.4288 C.3       1 ACP         0.0944
     16 O4'        -1.1285    0.2356    2.5840 O.3       1 ACP        -0.4017
     17 C3'         1.0324    0.7610    1.7344 C.3       1 ACP         0.0859
     18 O3'         1.9175    0.2377    2.7247 O.3       1 ACP        -0.5941
     19 C2'         0.4468   -0.3802    0.9263 C.3       1 ACP         0.0924
     20 O2'         1.3993   -1.3703    0.5961 O.3       1 ACP        -0.5928
     21 C1'        -0.6159   -0.9100    1.8769 C.3       1 ACP         0.3967
     22 N9         -1.7127   -1.6108    1.2130 N.pl3     1 ACP        -0.6763
     23 C8         -2.8641   -1.0399    0.7392 C.ar      1 ACP         0.5586
     24 N7         -3.6659   -1.9257    0.1858 N.2       1 ACP        -0.5795
     25 C5         -3.0053   -3.1223    0.3069 C.ar      1 ACP        -0.2116
     26 C6         -3.3321   -4.4178   -0.0813 C.ar      1 ACP         0.7185
     27 N6         -4.5476   -4.6866   -0.7335 N.pl3     1 ACP        -0.9442
     28 N1         -2.4608   -5.4225    0.1773 N.ar      1 ACP        -0.8040
     29 C2         -1.3053   -5.1020    0.8081 C.ar      1 ACP         0.6560
     30 N3         -0.8788   -3.8921    1.2315 N.ar      1 ACP        -0.7058
     31 C4         -1.7870   -2.9477    0.9438 C.ar      1 ACP         0.5729
     32 HOG2        1.9808    1.2912   -2.1003 H         1 ACP         0.4440
     33 HOG3        1.0059    0.4668   -4.6742 H         1 ACP         0.4440
     34 H3B1       -1.0857    3.6770   -4.3467 H         1 ACP         0.1084
     35 H3B2       -1.3958    2.6844   -2.9252 H         1 ACP         0.1084
     36 H5'1       -1.7769    2.7852    2.1386 H         1 ACP         0.0281
     37 H5'2       -1.1652    2.0544    0.6320 H         1 ACP         0.0281
     38 H4'         0.0403    1.7078    3.4343 H         1 ACP         0.1082
     39 H3'         1.5906    1.4859    1.1353 H         1 ACP         0.0650
     40 HO3'        2.6839   -0.1150    2.2479 H         1 ACP         0.4300
     41 H2'        -0.0017    0.0018    0.0005 H         1 ACP         0.0785
     42 HO2'        2.0953   -0.9375    0.0709 H         1 ACP         0.4275
     43 H1'        -0.1998   -1.6319    2.6178 H         1 ACP         0.1009
     44 H8         -3.0609    0.0200    0.8250 H         1 ACP         0.1067
     45 HN61       -5.2046   -3.9433   -0.8775 H         1 ACP         0.4213
     46 HN62       -4.7849   -5.6332   -0.9625 H         1 ACP         0.4213
     47 H2         -0.6318   -5.9307    0.9993 H         1 ACP         0.0365
@<TRIPOS>BOND
     1    1    2 2
     2    1    3 1
     3    1    4 1
     4    1    8 1
     5    3   32 1
     6    4   33 1
     7    5    6 2
     8    5    7 1
     9    5    8 1
    10    5   12 1
    11    8   34 1
    12    8   35 1
    13    9   10 2
    14    9   11 1
    15    9   12 1
    16    9   13 1
    17   13   14 1
    18   14   15 1
    19   14   36 1
    20   14   37 1
    21   15   16 1
    22   15   17 1
    23   15   38 1
    24   16   21 1
    25   17   18 1
    26   17   19 1
    27   17   39 1
    28   18   40 1
    29   19   20 1
    30   19   21 1
    31   19   41 1
    32   20   42 1
    33   21   22 1
    34   21   43 1
    35   22   23 ar
    36   22   31 ar
    37   23   24 ar
    38   23   44 1
    39   24   25 ar
    40   25   26 ar
    41   25   31 ar
    42   26   27 1
    43   26   28 ar
    44   27   45 1
    45   27   46 1
    46   28   29 ar
    47   29   30 ar
    48   29   47 1
    49   30   31 ar
@<TRIPOS>SUBSTRUCTURE
     1 ACP         1 GROUP 0 A     ****
@<TRIPOS>MOLECULE
[[5-(6-aminopurin-9-yl)-3,4-dihydroxy-tetrahydrofuran-2-yl]methoxy-oxido-phosphoryl]oxy-(phosphonomethyl)phosphinate
   47    49     1     0     0
SMALL
USER_CHARGES

@<TRIPOS>ATOM
      1 PG         -1.6169    8.6540    1.5933 P.3       1 ACP         1.6478
      2 O1G        -2.1630    8.0582    0.3307 O.2       1 ACP        -0.9103
      3 O2G        -2.7194    9.2503    2.6127 O.3       1 ACP        -0.7989
      4 O3G        -0.5848    9.8802    1.3910 O.3       1 ACP        -0.7989
      5 PB         -1.4223    5.9530    3.3244 P.3       1 ACP         1.4947
      6 O1B        -2.5773    6.3691    4.2056 O.co2     1 ACP        -0.8554
      7 O2B        -0.2831    5.1017    3.8354 O.co2     1 ACP        -0.8554
      8 C3B        -0.6848    7.4968    2.6217 C.3       1 ACP        -0.6550
      9 PA         -2.9648    4.0418    1.6589 P.3       1 ACP         1.5921
     10 O1A        -3.0690    3.8284    0.1642 O.co2     1 ACP        -0.8561
     11 O2A        -4.2106    4.1925    2.5047 O.co2     1 ACP        -0.8561
     12 O3A        -1.9968    5.3287    1.9318 O.3       1 ACP        -0.8166
     13 O5'        -2.0402    2.8619    2.3132 O.3       1 ACP        -0.5737
     14 C5'        -0.8811    2.4285    1.6206 C.3       1 ACP         0.2197
     15 C4'        -0.1994    1.3333    2.4288 C.3       1 ACP         0.0944
     16 O4'        -1.1285    0.2356    2.5840 O.3       1 ACP        -0.4017
     17 C3'         1.0324    0.7610    1.7344 C.3       1 ACP         0.0859
     18 O3'         1.9175    0.2377    2.7247 O.3       1 ACP        -0.5941
     19 C2'         0.4468   -0.3802    0.9263 C.3       1 ACP         0.0924
     20 O2'         1.3993   -1.3703    0.5961 O.3       1 ACP        -0.5928
     21 C1'        -0.6159   -0.9100    1.8769 C.3       1 ACP         0.3967
     22 N9         -1.7127   -1.6108    1.2130 N.pl3     1 ACP        -0.6763
     23 C8         -1.7712   -2.9546    0.9544 C.ar      1 ACP         0.5586
     24 N7         -2.8883   -3.2948    0.3462 N.2       1 ACP        -0.5795
     25 C5         -3.5834   -2.1202    0.2043 C.ar      1 ACP        -0.2116
     26 C6         -4.8225   -1.8251   -0.3554 C.ar      1 ACP         0.7185
     27 N6         -5.6154   -2.8394   -0.9189 N.pl3     1 ACP        -0.9442
     28 N1         -5.2589   -0.5425   -0.3507 N.ar      1 ACP        -0.8040
     29 C2         -4.4510    0.3913    0.2069 C.ar      1 ACP         0.6560
     30 N3         -3.2368    0.2296    0.7767 N.ar      1 ACP        -0.7058
     31 C4         -2.8684   -1.0596    0.7376 C.ar      1 ACP         0.5729
     32 HOG2       -3.3065    9.9742    2.3073 H         1 ACP         0.4440
     33 HOG3       -0.8909   10.6869    0.9245 H         1 ACP         0.4440
     34 H3B1        0.1875    7.1698    2.0446 H         1 ACP         0.1084
     35 H3B2       -0.3060    8.0645    3.4792 H         1 ACP         0.1084
     36 H5'1       -1.1771    2.0504    0.6370 H         1 ACP         0.0281
     37 H5'2       -0.2083    3.2816    1.4878 H         1 ACP         0.0281
     38 H4'         0.0403    1.7078    3.4343 H         1 ACP         0.1082
     39 H3'         1.5906    1.4859    1.1353 H         1 ACP         0.0650
     40 HO3'        2.6839   -0.1150    2.2479 H         1 ACP         0.4300
     41 H2'        -0.0017    0.0018    0.0005 H         1 ACP         0.0785
     42 HO2'        2.0953   -0.9375    0.0709 H         1 ACP         0.4275
     43 H1'        -0.1998   -1.6319    2.6178 H         1 ACP         0.1009
     44 H8         -0.9745   -3.6312    1.2318 H         1 ACP         0.1067
     45 HN61       -5.2619   -3.7766   -0.9586 H         1 ACP         0.4213
     46 HN62       -6.4834   -2.5990   -1.3590 H         1 ACP         0.4213
     47 H2         -4.8317    1.4071    0.1930 H         1 ACP         0.0365
@<TRIPOS>BOND
     1    1    2 2
     2    1    3 1
     3    1    4 1
     4    1    8 1
     5    3   32 1
     6    4   33 1
     7    5    6 2
     8    5    7 1
     9    5    8 1
    10    5   12 1
    11    8   34 1
    12    8   35 1
    13    9   10 2
    14    9   11 1
    15    9   12 1
    16    9   13 1
    17   13   14 1
    18   14   15 1
    19   14   36 1
    20   14   37 1
    21   15   16 1
    22   15   17 1
    23   15   38 1
    24   16   21 1
    25   17   18 1
    26   17   19 1
    27   17   39 1
    28   18   40 1
    29   19   20 1
    30   19   21 1
    31   19   41 1
    32   20   42 1
    33   21   22 1
    34   21   43 1
    35   22   23 ar
    36   22   31 ar
    37   23   24 ar
    38   23   44 1
    39   24   25 ar
    40   25   26 ar
    41   25   31 ar
    42   26   27 1
    43   26   28 ar
    44   27   45 1
    45   27   46 1
    46   28   29 ar
    47   29   30 ar
    48   29   47 1
    49   30   31 ar
@<TRIPOS>SUBSTRUCTURE
     1 ACP         1 GROUP 0 A     ****
@<TRIPOS>MOLECULE
[[5-(6-aminopurin-9-yl)-3,4-dihydroxy-tetrahydrofuran-2-yl]methoxy-oxido-phosphoryl]oxy-(phosphonomethyl)phosphinate
   47    49     1     0     0
SMALL
USER_CHARGES

@<TRIPOS>ATOM
      1 PG          0.1329    7.4712    3.7149 P.3       1 ACP         1.6478
      2 O1G        -0.6590    8.3066    4.6753 O.2       1 ACP        -0.9103
      3 O2G         0.2150    5.8969    4.0687 O.3       1 ACP        -0.7989
      4 O3G         1.6797    7.9009    3.5350 O.3       1 ACP        -0.7989
      5 PB         -2.1970    6.9070    1.5741 P.3       1 ACP         1.4947
      6 O1B        -2.3467    7.0709    0.0793 O.co2     1 ACP        -0.8554
      7 O2B        -3.1586    7.5362    2.5554 O.co2     1 ACP        -0.8554
      8 C3B        -0.4973    7.4830    2.0213 C.3       1 ACP        -0.6550
      9 PA         -2.9648    4.0418    1.6589 P.3       1 ACP         1.5921
     10 O1A        -3.0690    3.8284    0.1642 O.co2     1 ACP        -0.8561
     11 O2A        -4.2106    4.1925    2.5047 O.co2     1 ACP        -0.8561
     12 O3A        -1.9968    5.3287    1.9318 O.3       1 ACP        -0.8166
     13 O5'        -2.0402    2.8619    2.3132 O.3       1 ACP        -0.5737
     14 C5'        -0.8811    2.4285    1.6206 C.3       1 ACP         0.2197
     15 C4'        -0.1994    1.3333    2.4288 C.3       1 ACP         0.0944
     16 O4'        -1.1285    0.2356    2.5840 O.3       1 ACP        -0.4017
     17 C3'         1.0324    0.7610    1.7344 C.3       1 ACP         0.0859
     18 O3'         1.9175    0.2377    2.7247 O.3       1 ACP        -0.5941
     19 C2'         0.4468   -0.3802    0.9263 C.3       1 ACP         0.0924
     20 O2'         1.3993   -1.3703    0.5961 O.3       1 ACP        -0.5928
     21 C1'        -0.6159   -0.9100    1.8769 C.3       1 ACP         0.3967
     22 N9         -1.7127   -1.6108    1.2130 N.pl3     1 ACP        -0.6763
     23 C8         -1.7712   -2.9546    0.9544 C.ar      1 ACP         0.5586
     24 N7         -2.8883   -3.2948    0.3462 N.2       1 ACP        -0.5795
     25 C5         -3.5834   -2.1202    0.2043 C.ar      1 ACP        -0.2116
     26 C6         -4.8225   -1.8251   -0.3554 C.ar      1 ACP         0.7185
     27 N6         -5.6154   -2.8394   -0.9189 N.pl3     1 ACP        -0.9442
     28 N1         -5.2589   -0.5425   -0.3507 N.ar      1 ACP        -0.8040
     29 C2         -4.4510    0.3913    0.2069 C.ar      1 ACP         0.6560
     30 N3         -3.2368    0.2296    0.7767 N.ar      1 ACP        -0.7058
     31 C4         -2.8684   -1.0596    0.7376 C.ar      1 ACP         0.5729
     32 HOG2        0.6127    5.6219    4.9220 H         1 ACP         0.4440
     33 HOG3        2.2701    7.8898    4.3182 H         1 ACP         0.4440
     34 H3B1       -0.4278    8.5115    1.6494 H         1 ACP         0.1084
     35 H3B2        0.1913    6.8787    1.4197 H         1 ACP         0.1084
     36 H5'1       -1.1771    2.0504    0.6370 H         1 ACP         0.0281
     37 H5'2       -0.2083    3.2816    1.4878 H         1 ACP         0.0281
     38 H4'         0.0403    1.7078    3.4343 H         1 ACP         0.1082
     39 H3'         1.5906    1.4859    1.1353 H         1 ACP         0.0650
     40 HO3'        2.6839   -0.1150    2.2479 H         1 ACP         0.4300
     41 H2'        -0.0017    0.0018    0.0005 H         1 ACP         0.0785
     42 HO2'        2.0953   -0.9375    0.0709 H         1 ACP         0.4275
     43 H1'        -0.1998   -1.6319    2.6178 H         1 ACP         0.1009
     44 H8         -0.9745   -3.6312    1.2318 H         1 ACP         0.1067
     45 HN61       -5.2619   -3.7766   -0.9586 H         1 ACP         0.4213
     46 HN62       -6.4834   -2.5990   -1.3590 H         1 ACP         0.4213
     47 H2         -4.8317    1.4071    0.1930 H         1 ACP         0.0365
@<TRIPOS>BOND
     1    1    2 2
     2    1    3 1
     3    1    4 1
     4    1    8 1
     5    3   32 1
     6    4   33 1
     7    5    6 2
     8    5    7 1
     9    5    8 1
    10    5   12 1
    11    8   34 1
    12    8   35 1
    13    9   10 2
    14    9   11 1
    15    9   12 1
    16    9   13 1
    17   13   14 1
    18   14   15 1
    19   14   36 1
    20   14   37 1
    21   15   16 1
    22   15   17 1
    23   15   38 1
    24   16   21 1
    25   17   18 1
    26   17   19 1
    27   17   39 1
    28   18   40 1
    29   19   20 1
    30   19   21 1
    31   19   41 1
    32   20   42 1
    33   21   22 1
    34   21   43 1
    35   22   23 ar
    36   22   31 ar
    37   23   24 ar
    38   23   44 1
    39   24   25 ar
    40   25   26 ar
    41   25   31 ar
    42   26   27 1
    43   26   28 ar
    44   27   45 1
    45   27   46 1
    46   28   29 ar
    47   29   30 ar
    48   29   47 1
    49   30   31 ar
@<TRIPOS>SUBSTRUCTURE
     1 ACP         1 GROUP 0 A     ****
@<TRIPOS>MOLECULE
[[5-(6-aminopurin-9-yl)-3,4-dihydroxy-tetrahydrofuran-2-yl]methoxy-oxido-phosphoryl]oxy-(phosphonomethyl)phosphinate
   47    49     1     0     0
SMALL
USER_CHARGES

@<TRIPOS>ATOM
      1 PG         -1.4384    2.3275   -3.6626 P.3       1 ACP         1.6478
      2 O1G        -2.0003    2.3739   -5.0516 O.2       1 ACP        -0.9103
      3 O2G        -0.8457    0.8970   -3.2011 O.3       1 ACP        -0.7989
      4 O3G        -2.4746    2.7073   -2.4829 O.3       1 ACP        -0.7989
      5 PB          0.8133    3.5976   -1.7529 P.3       1 ACP         1.4947
      6 O1B         1.8969    4.6386   -1.9130 O.co2     1 ACP        -0.8554
      7 O2B         1.1069    2.1933   -1.2780 O.co2     1 ACP        -0.8554
      8 C3B        -0.0583    3.4589   -3.3783 C.3       1 ACP        -0.6550
      9 PA         -0.4662    4.8323    0.6228 P.3       1 ACP         1.5921
     10 O1A        -1.9048    5.1484    0.9710 O.co2     1 ACP        -0.8561
     11 O2A         0.6070    5.8922    0.7447 O.co2     1 ACP        -0.8561
     12 O3A        -0.4219    4.2246   -0.8925 O.3       1 ACP        -0.8166
     13 O5'         0.0182    3.5132    1.4596 O.3       1 ACP        -0.5737
     14 C5'        -0.8811    2.4285    1.6206 C.3       1 ACP         0.2197
     15 C4'        -0.1994    1.3333    2.4288 C.3       1 ACP         0.0944
     16 O4'        -1.1285    0.2356    2.5840 O.3       1 ACP        -0.4017
     17 C3'         1.0324    0.7610    1.7344 C.3       1 ACP         0.0859
     18 O3'         1.9175    0.2377    2.7247 O.3       1 ACP        -0.5941
     19 C2'         0.4468   -0.3802    0.9263 C.3       1 ACP         0.0924
     20 O2'         1.3993   -1.3703    0.5961 O.3       1 ACP        -0.5928
     21 C1'        -0.6159   -0.9100    1.8769 C.3       1 ACP         0.3967
     22 N9         -1.7127   -1.6108    1.2130 N.pl3     1 ACP        -0.6763
     23 C8         -2.8641   -1.0399    0.7392 C.ar      1 ACP         0.5586
     24 N7         -3.6659   -1.9257    0.1858 N.2       1 ACP        -0.5795
     25 C5         -3.0053   -3.1223    0.3069 C.ar      1 ACP        -0.2116
     26 C6         -3.3321   -4.4178   -0.0813 C.ar      1 ACP         0.7185
     27 N6         -4.5476   -4.6866   -0.7335 N.pl3     1 ACP        -0.9442
     28 N1         -2.4608   -5.4225    0.1773 N.ar      1 ACP        -0.8040
     29 C2         -1.3053   -5.1020    0.8081 C.ar      1 ACP         0.6560
     30 N3         -0.8788   -3.8921    1.2315 N.ar      1 ACP        -0.7058
     31 C4         -1.7870   -2.9477    0.9438 C.ar      1 ACP         0.5729
     32 HOG2       -1.4425    0.1189   -3.1837 H         1 ACP         0.4440
     33 HOG3       -3.2859    2.1675   -2.3710 H         1 ACP         0.4440
     34 H3B1        0.7212    3.2207   -4.1108 H         1 ACP         0.1084
     35 H3B2       -0.4183    4.4674   -3.6116 H         1 ACP         0.1084
     36 H5'1       -1.7769    2.7852    2.1386 H         1 ACP         0.0281
     37 H5'2       -1.1652    2.0544    0.6320 H         1 ACP         0.0281
     38 H4'         0.0403    1.7078    3.4343 H         1 ACP         0.1082
     39 H3'         1.5906    1.4859    1.1353 H         1 ACP         0.0650
     40 HO3'        2.6839   -0.1150    2.2479 H         1 ACP         0.4300
     41 H2'        -0.0017    0.0018    0.0005 H         1 ACP         0.0785
     42 HO2'        2.0953   -0.9375    0.0709 H         1 ACP         0.4275
     43 H1'        -0.1998   -1.6319    2.6178 H         1 ACP         0.1009
     44 H8         -3.0609    0.0200    0.8250 H         1 ACP         0.1067
     45 HN61       -5.2046   -3.9433   -0.8775 H         1 ACP         0.4213
     46 HN62       -4.7849   -5.6332   -0.9625 H         1 ACP         0.4213
     47 H2         -0.6318   -5.9307    0.9993 H         1 ACP         0.0365
@<TRIPOS>BOND
     1    1    2 2
     2    1    3 1
     3    1    4 1
     4    1    8 1
     5    3   32 1
     6    4   33 1
     7    5    6 2
     8    5    7 1
     9    5    8 1
    10    5   12 1
    11    8   34 1
    12    8   35 1
    13    9   10 2
    14    9   11 1
    15    9   12 1
    16    9   13 1
    17   13   14 1
    18   14   15 1
    19   14   36 1
    20   14   37 1
    21   15   16 1
    22   15   17 1
    23   15   38 1
    24   16   21 1
    25   17   18 1
    26   17   19 1
    27   17   39 1
    28   18   40 1
    29   19   20 1
    30   19   21 1
    31   19   41 1
    32   20   42 1
    33   21   22 1
    34   21   43 1
    35   22   23 ar
    36   22   31 ar
    37   23   24 ar
    38   23   44 1
    39   24   25 ar
    40   25   26 ar
    41   25   31 ar
    42   26   27 1
    43   26   28 ar
    44   27   45 1
    45   27   46 1
    46   28   29 ar
    47   29   30 ar
    48   29   47 1
    49   30   31 ar
@<TRIPOS>SUBSTRUCTURE
     1 ACP         1 GROUP 0 A     ****
@<TRIPOS>MOLECULE
[[5-(6-aminopurin-9-yl)-3,4-dihydroxy-tetrahydrofuran-2-yl]methoxy-oxido-phosphoryl]oxy-(phosphonomethyl)phosphinate
   47    49     1     0     0
SMALL
USER_CHARGES

@<TRIPOS>ATOM
      1 PG          3.4937    1.9071   -2.1291 P.3       1 ACP         1.6478
      2 O1G         3.5375    1.9748   -0.6321 O.2       1 ACP        -0.9103
      3 O2G         4.0280    0.5271   -2.7773 O.3       1 ACP        -0.7989
      4 O3G         4.3458    3.0431   -2.8993 O.3       1 ACP        -0.7989
      5 PB          0.7901    3.5852   -2.5817 P.3       1 ACP         1.4947
      6 O1B        -0.5072    3.3553   -3.3217 O.co2     1 ACP        -0.8554
      7 O2B         1.6621    4.7926   -2.8375 O.co2     1 ACP        -0.8554
      8 C3B         1.8397    2.0836   -2.8353 C.3       1 ACP        -0.6550
      9 PA         -0.0885    4.4445    0.1193 P.3       1 ACP         1.5921
     10 O1A        -1.5458    4.6741   -0.2187 O.co2     1 ACP        -0.8561
     11 O2A         0.8596    5.6133    0.2768 O.co2     1 ACP        -0.8561
     12 O3A         0.5414    3.4131   -0.9793 O.3       1 ACP        -0.8166
     13 O5'         0.0182    3.5132    1.4596 O.3       1 ACP        -0.5737
     14 C5'        -0.8811    2.4285    1.6206 C.3       1 ACP         0.2197
     15 C4'        -0.1994    1.3333    2.4288 C.3       1 ACP         0.0944
     16 O4'        -1.1285    0.2356    2.5840 O.3       1 ACP        -0.4017
     17 C3'         1.0324    0.7610    1.7344 C.3       1 ACP         0.0859
     18 O3'         1.9175    0.2377    2.7247 O.3       1 ACP        -0.5941
     19 C2'         0.4468   -0.3802    0.9263 C.3       1 ACP         0.0924
     20 O2'         1.3993   -1.3703    0.5961 O.3       1 ACP        -0.5928
     21 C1'        -0.6159   -0.9100    1.8769 C.3       1 ACP         0.3967
     22 N9         -1.7127   -1.6108    1.2130 N.pl3     1 ACP        -0.6763
     23 C8         -1.7712   -2.9546    0.9544 C.ar      1 ACP         0.5586
     24 N7         -2.8883   -3.2948    0.3462 N.2       1 ACP        -0.5795
     25 C5         -3.5834   -2.1202    0.2043 C.ar      1 ACP        -0.2116
     26 C6         -4.8225   -1.8251   -0.3554 C.ar      1 ACP         0.7185
     27 N6         -5.6154   -2.8394   -0.9189 N.pl3     1 ACP        -0.9442
     28 N1         -5.2589   -0.5425   -0.3507 N.ar      1 ACP        -0.8040
     29 C2         -4.4510    0.3913    0.2069 C.ar      1 ACP         0.6560
     30 N3         -3.2368    0.2296    0.7767 N.ar      1 ACP        -0.7058
     31 C4         -2.8684   -1.0596    0.7376 C.ar      1 ACP         0.5729
     32 HOG2        4.9535    0.2499   -2.6082 H         1 ACP         0.4440
     33 HOG3        5.3130    3.0971   -2.7460 H         1 ACP         0.4440
     34 H3B1        1.9293    1.9672   -3.9213 H         1 ACP         0.1084
     35 H3B2        1.2448    1.2380   -2.4715 H         1 ACP         0.1084
     36 H5'1       -1.7769    2.7852    2.1386 H         1 ACP         0.0281
     37 H5'2       -1.1652    2.0544    0.6320 H         1 ACP         0.0281
     38 H4'         0.0403    1.7078    3.4343 H         1 ACP         0.1082
     39 H3'         1.5906    1.4859    1.1353 H         1 ACP         0.0650
     40 HO3'        2.6839   -0.1150    2.2479 H         1 ACP         0.4300
     41 H2'        -0.0017    0.0018    0.0005 H         1 ACP         0.0785
     42 HO2'        2.0953   -0.9375    0.0709 H         1 ACP         0.4275
     43 H1'        -0.1998   -1.6319    2.6178 H         1 ACP         0.1009
     44 H8         -0.9745   -3.6312    1.2318 H         1 ACP         0.1067
     45 HN61       -5.2619   -3.7766   -0.9586 H         1 ACP         0.4213
     46 HN62       -6.4834   -2.5990   -1.3590 H         1 ACP         0.4213
     47 H2         -4.8317    1.4071    0.1930 H         1 ACP         0.0365
@<TRIPOS>BOND
     1    1    2 2
     2    1    3 1
     3    1    4 1
     4    1    8 1
     5    3   32 1
     6    4   33 1
     7    5    6 2
     8    5    7 1
     9    5    8 1
    10    5   12 1
    11    8   34 1
    12    8   35 1
    13    9   10 2
    14    9   11 1
    15    9   12 1
    16    9   13 1
    17   13   14 1
    18   14   15 1
    19   14   36 1
    20   14   37 1
    21   15   16 1
    22   15   17 1
    23   15   38 1
    24   16   21 1
    25   17   18 1
    26   17   19 1
    27   17   39 1
    28   18   40 1
    29   19   20 1
    30   19   21 1
    31   19   41 1
    32   20   42 1
    33   21   22 1
    34   21   43 1
    35   22   23 ar
    36   22   31 ar
    37   23   24 ar
    38   23   44 1
    39   24   25 ar
    40   25   26 ar
    41   25   31 ar
    42   26   27 1
    43   26   28 ar
    44   27   45 1
    45   27   46 1
    46   28   29 ar
    47   29   30 ar
    48   29   47 1
    49   30   31 ar
@<TRIPOS>SUBSTRUCTURE
     1 ACP         1 GROUP 0 A     ****
@<TRIPOS>MOLECULE
[[5-(6-aminopurin-9-yl)-3,4-dihydroxy-tetrahydrofuran-2-yl]methoxy-oxido-phosphoryl]oxy-(phosphonomethyl)phosphinate
   47    49     1     0     0
SMALL
USER_CHARGES

@<TRIPOS>ATOM
      1 PG         -1.6169    8.6540    1.5933 P.3       1 ACP         1.6478
      2 O1G        -2.1630    8.0582    0.3307 O.2       1 ACP        -0.9103
      3 O2G        -2.7194    9.2503    2.6127 O.3       1 ACP        -0.7989
      4 O3G        -0.5848    9.8802    1.3910 O.3       1 ACP        -0.7989
      5 PB         -1.4223    5.9530    3.3244 P.3       1 ACP         1.4947
      6 O1B        -2.5773    6.3691    4.2056 O.co2     1 ACP        -0.8554
      7 O2B        -0.2831    5.1017    3.8354 O.co2     1 ACP        -0.8554
      8 C3B        -0.6848    7.4968    2.6217 C.3       1 ACP        -0.6550
      9 PA         -2.9648    4.0418    1.6589 P.3       1 ACP         1.5921
     10 O1A        -3.0690    3.8284    0.1642 O.co2     1 ACP        -0.8561
     11 O2A        -4.2106    4.1925    2.5047 O.co2     1 ACP        -0.8561
     12 O3A        -1.9968    5.3287    1.9318 O.3       1 ACP        -0.8166
     13 O5'        -2.0402    2.8619    2.3132 O.3       1 ACP        -0.5737
     14 C5'        -0.8811    2.4285    1.6206 C.3       1 ACP         0.2197
     15 C4'        -0.1994    1.3333    2.4288 C.3       1 ACP         0.0944
     16 O4'        -1.1285    0.2356    2.5840 O.3       1 ACP        -0.4017
     17 C3'         1.0324    0.7610    1.7344 C.3       1 ACP         0.0859
     18 O3'         1.9175    0.2377    2.7247 O.3       1 ACP        -0.5941
     19 C2'         0.4468   -0.3802    0.9263 C.3       1 ACP         0.0924
     20 O2'         1.3993   -1.3703    0.5961 O.3       1 ACP        -0.5928
     21 C1'        -0.6159   -0.9100    1.8769 C.3       1 ACP         0.3967
     22 N9         -1.7127   -1.6108    1.2130 N.pl3     1 ACP        -0.6763
     23 C8         -2.8641   -1.0399    0.7392 C.ar      1 ACP         0.5586
     24 N7         -3.6659   -1.9257    0.1858 N.2       1 ACP        -0.5795
     25 C5         -3.0053   -3.1223    0.3069 C.ar      1 ACP        -0.2116
     26 C6         -3.3321   -4.4178   -0.0813 C.ar      1 ACP         0.7185
     27 N6         -4.5476   -4.6866   -0.7335 N.pl3     1 ACP        -0.9442
     28 N1         -2.4608   -5.4225    0.1773 N.ar      1 ACP        -0.8040
     29 C2         -1.3053   -5.1020    0.8081 C.ar      1 ACP         0.6560
     30 N3         -0.8788   -3.8921    1.2315 N.ar      1 ACP        -0.7058
     31 C4         -1.7870   -2.9477    0.9438 C.ar      1 ACP         0.5729
     32 HOG2       -3.3065    9.9742    2.3073 H         1 ACP         0.4440
     33 HOG3       -0.8909   10.6869    0.9245 H         1 ACP         0.4440
     34 H3B1        0.1875    7.1698    2.0446 H         1 ACP         0.1084
     35 H3B2       -0.3060    8.0645    3.4792 H         1 ACP         0.1084
     36 H5'1       -1.1771    2.0504    0.6370 H         1 ACP         0.0281
     37 H5'2       -0.2083    3.2816    1.4878 H         1 ACP         0.0281
     38 H4'         0.0403    1.7078    3.4343 H         1 ACP         0.1082
     39 H3'         1.5906    1.4859    1.1353 H         1 ACP         0.0650
     40 HO3'        2.6839   -0.1150    2.2479 H         1 ACP         0.4300
     41 H2'        -0.0017    0.0018    0.0005 H         1 ACP         0.0785
     42 HO2'        2.0953   -0.9375    0.0709 H         1 ACP         0.4275
     43 H1'        -0.1998   -1.6319    2.6178 H         1 ACP         0.1009
     44 H8         -3.0609    0.0200    0.8250 H         1 ACP         0.1067
     45 HN61       -5.2046   -3.9433   -0.8775 H         1 ACP         0.4213
     46 HN62       -4.7849   -5.6332   -0.9625 H         1 ACP         0.4213
     47 H2         -0.6318   -5.9307    0.9993 H         1 ACP         0.0365
@<TRIPOS>BOND
     1    1    2 2
     2    1    3 1
     3    1    4 1
     4    1    8 1
     5    3   32 1
     6    4   33 1
     7    5    6 2
     8    5    7 1
     9    5    8 1
    10    5   12 1
    11    8   34 1
    12    8   35 1
    13    9   10 2
    14    9   11 1
    15    9   12 1
    16    9   13 1
    17   13   14 1
    18   14   15 1
    19   14   36 1
    20   14   37 1
    21   15   16 1
    22   15   17 1
    23   15   38 1
    24   16   21 1
    25   17   18 1
    26   17   19 1
    27   17   39 1
    28   18   40 1
    29   19   20 1
    30   19   21 1
    31   19   41 1
    32   20   42 1
    33   21   22 1
    34   21   43 1
    35   22   23 ar
    36   22   31 ar
    37   23   24 ar
    38   23   44 1
    39   24   25 ar
    40   25   26 ar
    41   25   31 ar
    42   26   27 1
    43   26   28 ar
    44   27   45 1
    45   27   46 1
    46   28   29 ar
    47   29   30 ar
    48   29   47 1
    49   30   31 ar
@<TRIPOS>SUBSTRUCTURE
     1 ACP         1 GROUP 0 A     ****
@<TRIPOS>MOLECULE
[[5-(6-aminopurin-9-yl)-3,4-dihydroxy-tetrahydrofuran-2-yl]methoxy-oxido-phosphoryl]oxy-(phosphonomethyl)phosphinate
   47    49     1     0     0
SMALL
USER_CHARGES

@<TRIPOS>ATOM
      1 PG          0.1329    7.4712    3.7149 P.3       1 ACP         1.6478
      2 O1G        -0.6590    8.3066    4.6753 O.2       1 ACP        -0.9103
      3 O2G         0.2150    5.8969    4.0687 O.3       1 ACP        -0.7989
      4 O3G         1.6797    7.9009    3.5350 O.3       1 ACP        -0.7989
      5 PB         -2.1970    6.9070    1.5741 P.3       1 ACP         1.4947
      6 O1B        -2.3467    7.0709    0.0793 O.co2     1 ACP        -0.8554
      7 O2B        -3.1586    7.5362    2.5554 O.co2     1 ACP        -0.8554
      8 C3B        -0.4973    7.4830    2.0213 C.3       1 ACP        -0.6550
      9 PA         -2.9648    4.0418    1.6589 P.3       1 ACP         1.5921
     10 O1A        -3.0690    3.8284    0.1642 O.co2     1 ACP        -0.8561
     11 O2A        -4.2106    4.1925    2.5047 O.co2     1 ACP        -0.8561
     12 O3A        -1.9968    5.3287    1.9318 O.3       1 ACP        -0.8166
     13 O5'        -2.0402    2.8619    2.3132 O.3       1 ACP        -0.5737
     14 C5'        -0.8811    2.4285    1.6206 C.3       1 ACP         0.2197
     15 C4'        -0.1994    1.3333    2.4288 C.3       1 ACP         0.0944
     16 O4'        -1.1285    0.2356    2.5840 O.3       1 ACP        -0.4017
     17 C3'         1.0324    0.7610    1.7344 C.3       1 ACP         0.0859
     18 O3'         1.9175    0.2377    2.7247 O.3       1 ACP        -0.5941
     19 C2'         0.4468   -0.3802    0.9263 C.3       1 ACP         0.0924
     20 O2'         1.3993   -1.3703    0.5961 O.3       1 ACP        -0.5928
     21 C1'        -0.6159   -0.9100    1.8769 C.3       1 ACP         0.3967
     22 N9         -1.7127   -1.6108    1.2130 N.pl3     1 ACP        -0.6763
     23 C8         -2.8641   -1.0399    0.7392 C.ar      1 ACP         0.5586
     24 N7         -3.6659   -1.9257    0.1858 N.2       1 ACP        -0.5795
     25 C5         -3.0053   -3.1223    0.3069 C.ar      1 ACP        -0.2116
     26 C6         -3.3321   -4.4178   -0.0813 C.ar      1 ACP         0.7185
     27 N6         -4.5476   -4.6866   -0.7335 N.pl3     1 ACP        -0.9442
     28 N1         -2.4608   -5.4225    0.1773 N.ar      1 ACP        -0.8040
     29 C2         -1.3053   -5.1020    0.8081 C.ar      1 ACP         0.6560
     30 N3         -0.8788   -3.8921    1.2315 N.ar      1 ACP        -0.7058
     31 C4         -1.7870   -2.9477    0.9438 C.ar      1 ACP         0.5729
     32 HOG2        0.6127    5.6219    4.9220 H         1 ACP         0.4440
     33 HOG3        2.2701    7.8898    4.3182 H         1 ACP         0.4440
     34 H3B1       -0.4278    8.5115    1.6494 H         1 ACP         0.1084
     35 H3B2        0.1913    6.8787    1.4197 H         1 ACP         0.1084
     36 H5'1       -1.1771    2.0504    0.6370 H         1 ACP         0.0281
     37 H5'2       -0.2083    3.2816    1.4878 H         1 ACP         0.0281
     38 H4'         0.0403    1.7078    3.4343 H         1 ACP         0.1082
     39 H3'         1.5906    1.4859    1.1353 H         1 ACP         0.0650
     40 HO3'        2.6839   -0.1150    2.2479 H         1 ACP         0.4300
     41 H2'        -0.0017    0.0018    0.0005 H         1 ACP         0.0785
     42 HO2'        2.0953   -0.9375    0.0709 H         1 ACP         0.4275
     43 H1'        -0.1998   -1.6319    2.6178 H         1 ACP         0.1009
     44 H8         -3.0609    0.0200    0.8250 H         1 ACP         0.1067
     45 HN61       -5.2046   -3.9433   -0.8775 H         1 ACP         0.4213
     46 HN62       -4.7849   -5.6332   -0.9625 H         1 ACP         0.4213
     47 H2         -0.6318   -5.9307    0.9993 H         1 ACP         0.0365
@<TRIPOS>BOND
     1    1    2 2
     2    1    3 1
     3    1    4 1
     4    1    8 1
     5    3   32 1
     6    4   33 1
     7    5    6 2
     8    5    7 1
     9    5    8 1
    10    5   12 1
    11    8   34 1
    12    8   35 1
    13    9   10 2
    14    9   11 1
    15    9   12 1
    16    9   13 1
    17   13   14 1
    18   14   15 1
    19   14   36 1
    20   14   37 1
    21   15   16 1
    22   15   17 1
    23   15   38 1
    24   16   21 1
    25   17   18 1
    26   17   19 1
    27   17   39 1
    28   18   40 1
    29   19   20 1
    30   19   21 1
    31   19   41 1
    32   20   42 1
    33   21   22 1
    34   21   43 1
    35   22   23 ar
    36   22   31 ar
    37   23   24 ar
    38   23   44 1
    39   24   25 ar
    40   25   26 ar
    41   25   31 ar
    42   26   27 1
    43   26   28 ar
    44   27   45 1
    45   27   46 1
    46   28   29 ar
    47   29   30 ar
    48   29   47 1
    49   30   31 ar
@<TRIPOS>SUBSTRUCTURE
     1 ACP         1 GROUP 0 A     ****
@<TRIPOS>MOLECULE
[[5-(6-aminopurin-9-yl)-3,4-dihydroxy-tetrahydrofuran-2-yl]methoxy-oxido-phosphoryl]oxy-(phosphonomethyl)phosphinate
   47    49     1     0     0
SMALL
USER_CHARGES

@<TRIPOS>ATOM
      1 PG         -4.5423    4.6965    3.1647 P.3       1 ACP         1.6478
      2 O1G        -4.5839    4.2452    1.7358 O.2       1 ACP        -0.9103
      3 O2G        -4.1284    3.5628    4.2388 O.3       1 ACP        -0.7989
      4 O3G        -5.9307    5.2821    3.7470 O.3       1 ACP        -0.7989
      5 PB         -1.5478    5.8637    3.1865 P.3       1 ACP         1.4947
      6 O1B        -1.0502    4.7226    4.0433 O.co2     1 ACP        -0.8554
      7 O2B        -0.9515    7.2501    3.2631 O.co2     1 ACP        -0.8554
      8 C3B        -3.3645    6.0273    3.4923 C.3       1 ACP        -0.6550
      9 PA         -0.4662    4.8323    0.6228 P.3       1 ACP         1.5921
     10 O1A         0.6572    5.8459    0.5874 O.co2     1 ACP        -0.8561
     11 O2A        -1.1249    4.3667   -0.6576 O.co2     1 ACP        -0.8561
     12 O3A        -1.6280    5.3822    1.6306 O.3       1 ACP        -0.8166
     13 O5'         0.0182    3.5132    1.4596 O.3       1 ACP        -0.5737
     14 C5'        -0.8811    2.4285    1.6206 C.3       1 ACP         0.2197
     15 C4'        -0.1994    1.3333    2.4288 C.3       1 ACP         0.0944
     16 O4'        -1.1285    0.2356    2.5840 O.3       1 ACP        -0.4017
     17 C3'         1.0324    0.7610    1.7344 C.3       1 ACP         0.0859
     18 O3'         1.9175    0.2377    2.7247 O.3       1 ACP        -0.5941
     19 C2'         0.4468   -0.3802    0.9263 C.3       1 ACP         0.0924
     20 O2'         1.3993   -1.3703    0.5961 O.3       1 ACP        -0.5928
     21 C1'        -0.6159   -0.9100    1.8769 C.3       1 ACP         0.3967
     22 N9         -1.7127   -1.6108    1.2130 N.pl3     1 ACP        -0.6763
     23 C8         -1.7712   -2.9546    0.9544 C.ar      1 ACP         0.5586
     24 N7         -2.8883   -3.2948    0.3462 N.2       1 ACP        -0.5795
     25 C5         -3.5834   -2.1202    0.2043 C.ar      1 ACP        -0.2116
     26 C6         -4.8225   -1.8251   -0.3554 C.ar      1 ACP         0.7185
     27 N6         -5.6154   -2.8394   -0.9189 N.pl3     1 ACP        -0.9442
     28 N1         -5.2589   -0.5425   -0.3507 N.ar      1 ACP        -0.8040
     29 C2         -4.4510    0.3913    0.2069 C.ar      1 ACP         0.6560
     30 N3         -3.2368    0.2296    0.7767 N.ar      1 ACP        -0.7058
     31 C4         -2.8684   -1.0596    0.7376 C.ar      1 ACP         0.5729
     32 HOG2       -4.6827    2.7575    4.3169 H         1 ACP         0.4440
     33 HOG3       -6.7223    4.7031    3.7602 H         1 ACP         0.4440
     34 H3B1       -3.6829    6.9012    2.9127 H         1 ACP         0.1084
     35 H3B2       -3.4670    6.2917    4.5509 H         1 ACP         0.1084
     36 H5'1       -1.7769    2.7852    2.1386 H         1 ACP         0.0281
     37 H5'2       -1.1652    2.0544    0.6320 H         1 ACP         0.0281
     38 H4'         0.0403    1.7078    3.4343 H         1 ACP         0.1082
     39 H3'         1.5906    1.4859    1.1353 H         1 ACP         0.0650
     40 HO3'        2.6839   -0.1150    2.2479 H         1 ACP         0.4300
     41 H2'        -0.0017    0.0018    0.0005 H         1 ACP         0.0785
     42 HO2'        2.0953   -0.9375    0.0709 H         1 ACP         0.4275
     43 H1'        -0.1998   -1.6319    2.6178 H         1 ACP         0.1009
     44 H8         -0.9745   -3.6312    1.2318 H         1 ACP         0.1067
     45 HN61       -5.2619   -3.7766   -0.9586 H         1 ACP         0.4213
     46 HN62       -6.4834   -2.5990   -1.3590 H         1 ACP         0.4213
     47 H2         -4.8317    1.4071    0.1930 H         1 ACP         0.0365
@<TRIPOS>BOND
     1    1    2 2
     2    1    3 1
     3    1    4 1
     4    1    8 1
     5    3   32 1
     6    4   33 1
     7    5    6 2
     8    5    7 1
     9    5    8 1
    10    5   12 1
    11    8   34 1
    12    8   35 1
    13    9   10 2
    14    9   11 1
    15    9   12 1
    16    9   13 1
    17   13   14 1
    18   14   15 1
    19   14   36 1
    20   14   37 1
    21   15   16 1
    22   15   17 1
    23   15   38 1
    24   16   21 1
    25   17   18 1
    26   17   19 1
    27   17   39 1
    28   18   40 1
    29   19   20 1
    30   19   21 1
    31   19   41 1
    32   20   42 1
    33   21   22 1
    34   21   43 1
    35   22   23 ar
    36   22   31 ar
    37   23   24 ar
    38   23   44 1
    39   24   25 ar
    40   25   26 ar
    41   25   31 ar
    42   26   27 1
    43   26   28 ar
    44   27   45 1
    45   27   46 1
    46   28   29 ar
    47   29   30 ar
    48   29   47 1
    49   30   31 ar
@<TRIPOS>SUBSTRUCTURE
     1 ACP         1 GROUP 0 A     ****
@<TRIPOS>MOLECULE
[[5-(6-aminopurin-9-yl)-3,4-dihydroxy-tetrahydrofuran-2-yl]methoxy-oxido-phosphoryl]oxy-(phosphonomethyl)phosphinate
   47    49     1     0     0
SMALL
USER_CHARGES

@<TRIPOS>ATOM
      1 PG         -0.7571    7.5099    4.3835 P.3       1 ACP         1.6478
      2 O1G         0.4740    8.1044    4.9985 O.2       1 ACP        -0.9103
      3 O2G        -2.1509    8.2094    4.8058 O.3       1 ACP        -0.7989
      4 O3G        -1.0053    5.9460    4.7033 O.3       1 ACP        -0.7989
      5 PB         -2.1970    6.9070    1.5741 P.3       1 ACP         1.4947
      6 O1B        -1.8589    7.1420    0.1201 O.co2     1 ACP        -0.8554
      7 O2B        -3.4764    7.4147    2.1976 O.co2     1 ACP        -0.8554
      8 C3B        -0.7929    7.5717    2.5779 C.3       1 ACP        -0.6550
      9 PA         -2.9648    4.0418    1.6589 P.3       1 ACP         1.5921
     10 O1A        -3.0690    3.8284    0.1642 O.co2     1 ACP        -0.8561
     11 O2A        -4.2106    4.1925    2.5047 O.co2     1 ACP        -0.8561
     12 O3A        -1.9968    5.3287    1.9318 O.3       1 ACP        -0.8166
     13 O5'        -2.0402    2.8619    2.3132 O.3       1 ACP        -0.5737
     14 C5'        -0.8811    2.4285    1.6206 C.3       1 ACP         0.2197
     15 C4'        -0.1994    1.3333    2.4288 C.3       1 ACP         0.0944
     16 O4'        -1.1285    0.2356    2.5840 O.3       1 ACP        -0.4017
     17 C3'         1.0324    0.7610    1.7344 C.3       1 ACP         0.0859
     18 O3'         1.9175    0.2377    2.7247 O.3       1 ACP        -0.5941
     19 C2'         0.4468   -0.3802    0.9263 C.3       1 ACP         0.0924
     20 O2'         1.3993   -1.3703    0.5961 O.3       1 ACP        -0.5928
     21 C1'        -0.6159   -0.9100    1.8769 C.3       1 ACP         0.3967
     22 N9         -1.7127   -1.6108    1.2130 N.pl3     1 ACP        -0.6763
     23 C8         -1.7712   -2.9546    0.9544 C.ar      1 ACP         0.5586
     24 N7         -2.8883   -3.2948    0.3462 N.2       1 ACP        -0.5795
     25 C5         -3.5834   -2.1202    0.2043 C.ar      1 ACP        -0.2116
     26 C6         -4.8225   -1.8251   -0.3554 C.ar      1 ACP         0.7185
     27 N6         -5.6154   -2.8394   -0.9189 N.pl3     1 ACP        -0.9442
     28 N1         -5.2589   -0.5425   -0.3507 N.ar      1 ACP        -0.8040
     29 C2         -4.4510    0.3913    0.2069 C.ar      1 ACP         0.6560
     30 N3         -3.2368    0.2296    0.7767 N.ar      1 ACP        -0.7058
     31 C4         -2.8684   -1.0596    0.7376 C.ar      1 ACP         0.5729
     32 HOG2       -2.4075    8.2240    5.7524 H         1 ACP         0.4440
     33 HOG3       -1.1108    5.6627    5.6364 H         1 ACP         0.4440
     34 H3B1       -0.6896    8.6213    2.2805 H         1 ACP         0.1084
     35 H3B2        0.1026    7.0494    2.2222 H         1 ACP         0.1084
     36 H5'1       -1.1771    2.0504    0.6370 H         1 ACP         0.0281
     37 H5'2       -0.2083    3.2816    1.4878 H         1 ACP         0.0281
     38 H4'         0.0403    1.7078    3.4343 H         1 ACP         0.1082
     39 H3'         1.5906    1.4859    1.1353 H         1 ACP         0.0650
     40 HO3'        2.6839   -0.1150    2.2479 H         1 ACP         0.4300
     41 H2'        -0.0017    0.0018    0.0005 H         1 ACP         0.0785
     42 HO2'        0.9369   -2.0558    0.0825 H         1 ACP         0.4275
     43 H1'        -0.1998   -1.6319    2.6178 H         1 ACP         0.1009
     44 H8         -0.9745   -3.6312    1.2318 H         1 ACP         0.1067
     45 HN61       -6.5251   -2.6138   -1.2745 H         1 ACP         0.4213
     46 HN62       -5.3033   -3.7910   -0.8740 H         1 ACP         0.4213
     47 H2         -4.8317    1.4071    0.1930 H         1 ACP         0.0365
@<TRIPOS>BOND
     1    1    2 2
     2    1    3 1
     3    1    4 1
     4    1    8 1
     5    3   32 1
     6    4   33 1
     7    5    6 2
     8    5    7 1
     9    5    8 1
    10    5   12 1
    11    8   34 1
    12    8   35 1
    13    9   10 2
    14    9   11 1
    15    9   12 1
    16    9   13 1
    17   13   14 1
    18   14   15 1
    19   14   36 1
    20   14   37 1
    21   15   16 1
    22   15   17 1
    23   15   38 1
    24   16   21 1
    25   17   18 1
    26   17   19 1
    27   17   39 1
    28   18   40 1
    29   19   20 1
    30   19   21 1
    31   19   41 1
    32   20   42 1
    33   21   22 1
    34   21   43 1
    35   22   23 ar
    36   22   31 ar
    37   23   24 ar
    38   23   44 1
    39   24   25 ar
    40   25   26 ar
    41   25   31 ar
    42   26   27 1
    43   26   28 ar
    44   27   45 1
    45   27   46 1
    46   28   29 ar
    47   29   30 ar
    48   29   47 1
    49   30   31 ar
@<TRIPOS>SUBSTRUCTURE
     1 ACP         1 GROUP 0 A     ****
@<TRIPOS>MOLECULE
[[5-(6-aminopurin-9-yl)-3,4-dihydroxy-tetrahydrofuran-2-yl]methoxy-oxido-phosphoryl]oxy-(phosphonomethyl)phosphinate
   47    49     1     0     0
SMALL
USER_CHARGES

@<TRIPOS>ATOM
      1 PG         -5.3512   -0.3023    2.6215 P.3       1 ACP         1.6478
      2 O1G        -4.0019   -0.1065    3.2449 O.2       1 ACP        -0.9103
      3 O2G        -6.6007    0.2506    3.4836 O.3       1 ACP        -0.7989
      4 O3G        -5.7542   -1.8351    2.3092 O.3       1 ACP        -0.7989
      5 PB         -5.3955    2.3402    0.7925 P.3       1 ACP         1.4947
      6 O1B        -6.4368    2.9965    1.6692 O.co2     1 ACP        -0.8554
      7 O2B        -5.3102    2.6019   -0.6934 O.co2     1 ACP        -0.8554
      8 C3B        -5.5587    0.5122    1.0218 C.3       1 ACP        -0.6550
      9 PA         -3.0799    3.8626    1.8539 P.3       1 ACP         1.5921
     10 O1A        -3.8211    4.5962    2.9506 O.co2     1 ACP        -0.8561
     11 O2A        -2.7011    4.5719    0.5719 O.co2     1 ACP        -0.8561
     12 O3A        -3.9227    2.5173    1.4698 O.3       1 ACP        -0.8166
     13 O5'        -1.7337    3.1724    2.4754 O.3       1 ACP        -0.5737
     14 C5'        -0.8811    2.4285    1.6206 C.3       1 ACP         0.2197
     15 C4'        -0.1994    1.3333    2.4288 C.3       1 ACP         0.0944
     16 O4'        -1.1285    0.2356    2.5840 O.3       1 ACP        -0.4017
     17 C3'         1.0324    0.7610    1.7344 C.3       1 ACP         0.0859
     18 O3'         1.9175    0.2377    2.7247 O.3       1 ACP        -0.5941
     19 C2'         0.4468   -0.3802    0.9263 C.3       1 ACP         0.0924
     20 O2'         1.3993   -1.3703    0.5961 O.3       1 ACP        -0.5928
     21 C1'        -0.6159   -0.9100    1.8769 C.3       1 ACP         0.3967
     22 N9         -1.7127   -1.6108    1.2130 N.pl3     1 ACP        -0.6763
     23 C8         -2.5476   -1.0844    0.2632 C.ar      1 ACP         0.5586
     24 N7         -3.4391   -1.9591   -0.1536 N.2       1 ACP        -0.5795
     25 C5         -3.1701   -3.1016    0.5574 C.ar      1 ACP        -0.2116
     26 C6         -3.7593   -4.3620    0.5656 C.ar      1 ACP         0.7185
     27 N6         -4.8512   -4.6493   -0.2712 N.pl3     1 ACP        -0.9442
     28 N1         -3.2659   -5.3144    1.3932 N.ar      1 ACP        -0.8040
     29 C2         -2.2122   -4.9785    2.1759 C.ar      1 ACP         0.6560
     30 N3         -1.5595   -3.7985    2.2572 N.ar      1 ACP        -0.7058
     31 C4         -2.0986   -2.9054    1.4140 C.ar      1 ACP         0.5729
     32 HOG2       -6.7581   -0.1148    4.3801 H         1 ACP         0.4440
     33 HOG3       -5.8000   -2.4750    3.0511 H         1 ACP         0.4440
     34 H3B1       -4.8408    0.0632    0.3261 H         1 ACP         0.1084
     35 H3B2       -6.5599    0.2534    0.6587 H         1 ACP         0.1084
     36 H5'1       -1.4802    1.9929    0.8148 H         1 ACP         0.0281
     37 H5'2       -0.1370    3.1043    1.1873 H         1 ACP         0.0281
     38 H4'         0.0403    1.7078    3.4343 H         1 ACP         0.1082
     39 H3'         1.5906    1.4859    1.1353 H         1 ACP         0.0650
     40 HO3'        2.6839   -0.1150    2.2479 H         1 ACP         0.4300
     41 H2'        -0.0017    0.0018    0.0005 H         1 ACP         0.0785
     42 HO2'        2.0953   -0.9375    0.0709 H         1 ACP         0.4275
     43 H1'        -0.1998   -1.6319    2.6178 H         1 ACP         0.1009
     44 H8         -2.4576   -0.0639   -0.0831 H         1 ACP         0.1067
     45 HN61       -5.2371   -3.9234   -0.8448 H         1 ACP         0.4213
     46 HN62       -5.2909   -5.5485   -0.2160 H         1 ACP         0.4213
     47 H2         -1.8433   -5.7650    2.8259 H         1 ACP         0.0365
@<TRIPOS>BOND
     1    1    2 2
     2    1    3 1
     3    1    4 1
     4    1    8 1
     5    3   32 1
     6    4   33 1
     7    5    6 2
     8    5    7 1
     9    5    8 1
    10    5   12 1
    11    8   34 1
    12    8   35 1
    13    9   10 2
    14    9   11 1
    15    9   12 1
    16    9   13 1
    17   13   14 1
    18   14   15 1
    19   14   36 1
    20   14   37 1
    21   15   16 1
    22   15   17 1
    23   15   38 1
    24   16   21 1
    25   17   18 1
    26   17   19 1
    27   17   39 1
    28   18   40 1
    29   19   20 1
    30   19   21 1
    31   19   41 1
    32   20   42 1
    33   21   22 1
    34   21   43 1
    35   22   23 ar
    36   22   31 ar
    37   23   24 ar
    38   23   44 1
    39   24   25 ar
    40   25   26 ar
    41   25   31 ar
    42   26   27 1
    43   26   28 ar
    44   27   45 1
    45   27   46 1
    46   28   29 ar
    47   29   30 ar
    48   29   47 1
    49   30   31 ar
@<TRIPOS>SUBSTRUCTURE
     1 ACP         1 GROUP 0 A     ****
@<TRIPOS>MOLECULE
[[5-(6-aminopurin-9-yl)-3,4-dihydroxy-tetrahydrofuran-2-yl]methoxy-oxido-phosphoryl]oxy-(phosphonomethyl)phosphinate
   47    49     1     0     0
SMALL
USER_CHARGES

@<TRIPOS>ATOM
      1 PG         -4.5423    4.6965    3.1647 P.3       1 ACP         1.6478
      2 O1G        -4.5839    4.2452    1.7358 O.2       1 ACP        -0.9103
      3 O2G        -4.1284    3.5628    4.2388 O.3       1 ACP        -0.7989
      4 O3G        -5.9307    5.2821    3.7470 O.3       1 ACP        -0.7989
      5 PB         -1.5478    5.8637    3.1865 P.3       1 ACP         1.4947
      6 O1B        -1.0502    4.7226    4.0433 O.co2     1 ACP        -0.8554
      7 O2B        -0.9515    7.2501    3.2631 O.co2     1 ACP        -0.8554
      8 C3B        -3.3645    6.0273    3.4923 C.3       1 ACP        -0.6550
      9 PA         -0.4662    4.8323    0.6228 P.3       1 ACP         1.5921
     10 O1A         0.6572    5.8459    0.5874 O.co2     1 ACP        -0.8561
     11 O2A        -1.1249    4.3667   -0.6576 O.co2     1 ACP        -0.8561
     12 O3A        -1.6280    5.3822    1.6306 O.3       1 ACP        -0.8166
     13 O5'         0.0182    3.5132    1.4596 O.3       1 ACP        -0.5737
     14 C5'        -0.8811    2.4285    1.6206 C.3       1 ACP         0.2197
     15 C4'        -0.1994    1.3333    2.4288 C.3       1 ACP         0.0944
     16 O4'        -1.1285    0.2356    2.5840 O.3       1 ACP        -0.4017
     17 C3'         1.0324    0.7610    1.7344 C.3       1 ACP         0.0859
     18 O3'         1.9175    0.2377    2.7247 O.3       1 ACP        -0.5941
     19 C2'         0.4468   -0.3802    0.9263 C.3       1 ACP         0.0924
     20 O2'         1.3993   -1.3703    0.5961 O.3       1 ACP        -0.5928
     21 C1'        -0.6159   -0.9100    1.8769 C.3       1 ACP         0.3967
     22 N9         -1.7127   -1.6108    1.2130 N.pl3     1 ACP        -0.6763
     23 C8         -2.8641   -1.0399    0.7392 C.ar      1 ACP         0.5586
     24 N7         -3.6659   -1.9257    0.1858 N.2       1 ACP        -0.5795
     25 C5         -3.0053   -3.1223    0.3069 C.ar      1 ACP        -0.2116
     26 C6         -3.3321   -4.4178   -0.0813 C.ar      1 ACP         0.7185
     27 N6         -4.5476   -4.6866   -0.7335 N.pl3     1 ACP        -0.9442
     28 N1         -2.4608   -5.4225    0.1773 N.ar      1 ACP        -0.8040
     29 C2         -1.3053   -5.1020    0.8081 C.ar      1 ACP         0.6560
     30 N3         -0.8788   -3.8921    1.2315 N.ar      1 ACP        -0.7058
     31 C4         -1.7870   -2.9477    0.9438 C.ar      1 ACP         0.5729
     32 HOG2       -4.6827    2.7575    4.3169 H         1 ACP         0.4440
     33 HOG3       -6.7223    4.7031    3.7602 H         1 ACP         0.4440
     34 H3B1       -3.6829    6.9012    2.9127 H         1 ACP         0.1084
     35 H3B2       -3.4670    6.2917    4.5509 H         1 ACP         0.1084
     36 H5'1       -1.7769    2.7852    2.1386 H         1 ACP         0.0281
     37 H5'2       -1.1652    2.0544    0.6320 H         1 ACP         0.0281
     38 H4'         0.0403    1.7078    3.4343 H         1 ACP         0.1082
     39 H3'         1.5906    1.4859    1.1353 H         1 ACP         0.0650
     40 HO3'        2.6839   -0.1150    2.2479 H         1 ACP         0.4300
     41 H2'        -0.0017    0.0018    0.0005 H         1 ACP         0.0785
     42 HO2'        2.0953   -0.9375    0.0709 H         1 ACP         0.4275
     43 H1'        -0.1998   -1.6319    2.6178 H         1 ACP         0.1009
     44 H8         -3.0609    0.0200    0.8250 H         1 ACP         0.1067
     45 HN61       -5.2046   -3.9433   -0.8775 H         1 ACP         0.4213
     46 HN62       -4.7849   -5.6332   -0.9625 H         1 ACP         0.4213
     47 H2         -0.6318   -5.9307    0.9993 H         1 ACP         0.0365
@<TRIPOS>BOND
     1    1    2 2
     2    1    3 1
     3    1    4 1
     4    1    8 1
     5    3   32 1
     6    4   33 1
     7    5    6 2
     8    5    7 1
     9    5    8 1
    10    5   12 1
    11    8   34 1
    12    8   35 1
    13    9   10 2
    14    9   11 1
    15    9   12 1
    16    9   13 1
    17   13   14 1
    18   14   15 1
    19   14   36 1
    20   14   37 1
    21   15   16 1
    22   15   17 1
    23   15   38 1
    24   16   21 1
    25   17   18 1
    26   17   19 1
    27   17   39 1
    28   18   40 1
    29   19   20 1
    30   19   21 1
    31   19   41 1
    32   20   42 1
    33   21   22 1
    34   21   43 1
    35   22   23 ar
    36   22   31 ar
    37   23   24 ar
    38   23   44 1
    39   24   25 ar
    40   25   26 ar
    41   25   31 ar
    42   26   27 1
    43   26   28 ar
    44   27   45 1
    45   27   46 1
    46   28   29 ar
    47   29   30 ar
    48   29   47 1
    49   30   31 ar
@<TRIPOS>SUBSTRUCTURE
     1 ACP         1 GROUP 0 A     ****
@<TRIPOS>MOLECULE
[[5-(6-aminopurin-9-yl)-3,4-dihydroxy-tetrahydrofuran-2-yl]methoxy-oxido-phosphoryl]oxy-(phosphonomethyl)phosphinate
   47    49     1     0     0
SMALL
USER_CHARGES

@<TRIPOS>ATOM
      1 PG          1.8831    5.7909    3.4125 P.3       1 ACP         1.6478
      2 O1G         2.3142    6.4002    2.1124 O.2       1 ACP        -0.9103
      3 O2G         2.9967    5.7932    4.5830 O.3       1 ACP        -0.7989
      4 O3G         1.4190    4.2456    3.3333 O.3       1 ACP        -0.7989
      5 PB         -1.1852    6.7465    3.3680 P.3       1 ACP         1.4947
      6 O1B        -0.9854    7.5130    2.0811 O.co2     1 ACP        -0.8554
      7 O2B        -2.1739    7.1848    4.4234 O.co2     1 ACP        -0.8554
      8 C3B         0.4680    6.6068    4.1854 C.3       1 ACP        -0.6550
      9 PA         -2.5401    4.4095    2.1396 P.3       1 ACP         1.5921
     10 O1A        -2.3764    4.8319    0.6956 O.co2     1 ACP        -0.8561
     11 O2A        -3.8732    4.5590    2.8399 O.co2     1 ACP        -0.8561
     12 O3A        -1.4003    5.1652    3.0325 O.3       1 ACP        -0.8166
     13 O5'        -2.0402    2.8619    2.3132 O.3       1 ACP        -0.5737
     14 C5'        -0.8811    2.4285    1.6206 C.3       1 ACP         0.2197
     15 C4'        -0.1994    1.3333    2.4288 C.3       1 ACP         0.0944
     16 O4'        -1.1285    0.2356    2.5840 O.3       1 ACP        -0.4017
     17 C3'         1.0324    0.7610    1.7344 C.3       1 ACP         0.0859
     18 O3'         1.9175    0.2377    2.7247 O.3       1 ACP        -0.5941
     19 C2'         0.4468   -0.3802    0.9263 C.3       1 ACP         0.0924
     20 O2'         1.3993   -1.3703    0.5961 O.3       1 ACP        -0.5928
     21 C1'        -0.6159   -0.9100    1.8769 C.3       1 ACP         0.3967
     22 N9         -1.7127   -1.6108    1.2130 N.pl3     1 ACP        -0.6763
     23 C8         -2.8641   -1.0399    0.7392 C.ar      1 ACP         0.5586
     24 N7         -3.6659   -1.9257    0.1858 N.2       1 ACP        -0.5795
     25 C5         -3.0053   -3.1223    0.3069 C.ar      1 ACP        -0.2116
     26 C6         -3.3321   -4.4178   -0.0813 C.ar      1 ACP         0.7185
     27 N6         -4.5476   -4.6866   -0.7335 N.pl3     1 ACP        -0.9442
     28 N1         -2.4608   -5.4225    0.1773 N.ar      1 ACP        -0.8040
     29 C2         -1.3053   -5.1020    0.8081 C.ar      1 ACP         0.6560
     30 N3         -0.8788   -3.8921    1.2315 N.ar      1 ACP        -0.7058
     31 C4         -1.7870   -2.9477    0.9438 C.ar      1 ACP         0.5729
     32 HOG2        3.8448    5.3239    4.4328 H         1 ACP         0.4440
     33 HOG3        2.0593    3.5727    3.0184 H         1 ACP         0.4440
     34 H3B1        0.2814    6.1086    5.1434 H         1 ACP         0.1084
     35 H3B2        0.7763    7.6333    4.4139 H         1 ACP         0.1084
     36 H5'1       -1.1771    2.0504    0.6370 H         1 ACP         0.0281
     37 H5'2       -0.2083    3.2816    1.4878 H         1 ACP         0.0281
     38 H4'         0.0403    1.7078    3.4343 H         1 ACP         0.1082
     39 H3'         1.5906    1.4859    1.1353 H         1 ACP         0.0650
     40 HO3'        2.6839   -0.1150    2.2479 H         1 ACP         0.4300
     41 H2'        -0.0017    0.0018    0.0005 H         1 ACP         0.0785
     42 HO2'        2.0953   -0.9375    0.0709 H         1 ACP         0.4275
     43 H1'        -0.1998   -1.6319    2.6178 H         1 ACP         0.1009
     44 H8         -3.0609    0.0200    0.8250 H         1 ACP         0.1067
     45 HN61       -5.2046   -3.9433   -0.8775 H         1 ACP         0.4213
     46 HN62       -4.7849   -5.6332   -0.9625 H         1 ACP         0.4213
     47 H2         -0.6318   -5.9307    0.9993 H         1 ACP         0.0365
@<TRIPOS>BOND
     1    1    2 2
     2    1    3 1
     3    1    4 1
     4    1    8 1
     5    3   32 1
     6    4   33 1
     7    5    6 2
     8    5    7 1
     9    5    8 1
    10    5   12 1
    11    8   34 1
    12    8   35 1
    13    9   10 2
    14    9   11 1
    15    9   12 1
    16    9   13 1
    17   13   14 1
    18   14   15 1
    19   14   36 1
    20   14   37 1
    21   15   16 1
    22   15   17 1
    23   15   38 1
    24   16   21 1
    25   17   18 1
    26   17   19 1
    27   17   39 1
    28   18   40 1
    29   19   20 1
    30   19   21 1
    31   19   41 1
    32   20   42 1
    33   21   22 1
    34   21   43 1
    35   22   23 ar
    36   22   31 ar
    37   23   24 ar
    38   23   44 1
    39   24   25 ar
    40   25   26 ar
    41   25   31 ar
    42   26   27 1
    43   26   28 ar
    44   27   45 1
    45   27   46 1
    46   28   29 ar
    47   29   30 ar
    48   29   47 1
    49   30   31 ar
@<TRIPOS>SUBSTRUCTURE
     1 ACP         1 GROUP 0 A     ****
@<TRIPOS>MOLECULE
[[5-(6-aminopurin-9-yl)-3,4-dihydroxy-tetrahydrofuran-2-yl]methoxy-oxido-phosphoryl]oxy-(phosphonomethyl)phosphinate
   47    49     1     0     0
SMALL
USER_CHARGES

@<TRIPOS>ATOM
      1 PG          0.8504    2.4783   -3.6560 P.3       1 ACP         1.6478
      2 O1G         0.6977    1.2697   -4.5298 O.2       1 ACP        -0.9103
      3 O2G         1.8571    3.6134   -4.2114 O.3       1 ACP        -0.7989
      4 O3G         1.3920    2.1890   -2.1618 O.3       1 ACP        -0.7989
      5 PB         -0.7695    4.9159   -2.3280 P.3       1 ACP         1.4947
      6 O1B        -2.2079    5.3792   -2.3302 O.co2     1 ACP        -0.8554
      7 O2B         0.3687    5.8149   -2.7520 O.co2     1 ACP        -0.8554
      8 C3B        -0.6835    3.3894   -3.3687 C.3       1 ACP        -0.6550
      9 PA         -0.4662    4.8323    0.6228 P.3       1 ACP         1.5921
     10 O1A        -1.9048    5.1484    0.9710 O.co2     1 ACP        -0.8561
     11 O2A         0.6070    5.8922    0.7447 O.co2     1 ACP        -0.8561
     12 O3A        -0.4219    4.2246   -0.8925 O.3       1 ACP        -0.8166
     13 O5'         0.0182    3.5132    1.4596 O.3       1 ACP        -0.5737
     14 C5'        -0.8811    2.4285    1.6206 C.3       1 ACP         0.2197
     15 C4'        -0.1994    1.3333    2.4288 C.3       1 ACP         0.0944
     16 O4'        -1.1285    0.2356    2.5840 O.3       1 ACP        -0.4017
     17 C3'         1.0324    0.7610    1.7344 C.3       1 ACP         0.0859
     18 O3'         1.9175    0.2377    2.7247 O.3       1 ACP        -0.5941
     19 C2'         0.4468   -0.3802    0.9263 C.3       1 ACP         0.0924
     20 O2'         1.3993   -1.3703    0.5961 O.3       1 ACP        -0.5928
     21 C1'        -0.6159   -0.9100    1.8769 C.3       1 ACP         0.3967
     22 N9         -1.7127   -1.6108    1.2130 N.pl3     1 ACP        -0.6763
     23 C8         -1.7712   -2.9546    0.9544 C.ar      1 ACP         0.5586
     24 N7         -2.8883   -3.2948    0.3462 N.2       1 ACP        -0.5795
     25 C5         -3.5834   -2.1202    0.2043 C.ar      1 ACP        -0.2116
     26 C6         -4.8225   -1.8251   -0.3554 C.ar      1 ACP         0.7185
     27 N6         -5.6154   -2.8394   -0.9189 N.pl3     1 ACP        -0.9442
     28 N1         -5.2589   -0.5425   -0.3507 N.ar      1 ACP        -0.8040
     29 C2         -4.4510    0.3913    0.2069 C.ar      1 ACP         0.6560
     30 N3         -3.2368    0.2296    0.7767 N.ar      1 ACP        -0.7058
     31 C4         -2.8684   -1.0596    0.7376 C.ar      1 ACP         0.5729
     32 HOG2        2.7968    3.3799   -4.3674 H         1 ACP         0.4440
     33 HOG3        2.2705    1.7678   -2.0480 H         1 ACP         0.4440
     34 H3B1       -1.0857    3.6770   -4.3467 H         1 ACP         0.1084
     35 H3B2       -1.3958    2.6844   -2.9252 H         1 ACP         0.1084
     36 H5'1       -1.7769    2.7852    2.1386 H         1 ACP         0.0281
     37 H5'2       -1.1652    2.0544    0.6320 H         1 ACP         0.0281
     38 H4'         0.0403    1.7078    3.4343 H         1 ACP         0.1082
     39 H3'         1.5906    1.4859    1.1353 H         1 ACP         0.0650
     40 HO3'        2.6839   -0.1150    2.2479 H         1 ACP         0.4300
     41 H2'        -0.0017    0.0018    0.0005 H         1 ACP         0.0785
     42 HO2'        2.0953   -0.9375    0.0709 H         1 ACP         0.4275
     43 H1'        -0.1998   -1.6319    2.6178 H         1 ACP         0.1009
     44 H8         -0.9745   -3.6312    1.2318 H         1 ACP         0.1067
     45 HN61       -5.2619   -3.7766   -0.9586 H         1 ACP         0.4213
     46 HN62       -6.4834   -2.5990   -1.3590 H         1 ACP         0.4213
     47 H2         -4.8317    1.4071    0.1930 H         1 ACP         0.0365
@<TRIPOS>BOND
     1    1    2 2
     2    1    3 1
     3    1    4 1
     4    1    8 1
     5    3   32 1
     6    4   33 1
     7    5    6 2
     8    5    7 1
     9    5    8 1
    10    5   12 1
    11    8   34 1
    12    8   35 1
    13    9   10 2
    14    9   11 1
    15    9   12 1
    16    9   13 1
    17   13   14 1
    18   14   15 1
    19   14   36 1
    20   14   37 1
    21   15   16 1
    22   15   17 1
    23   15   38 1
    24   16   21 1
    25   17   18 1
    26   17   19 1
    27   17   39 1
    28   18   40 1
    29   19   20 1
    30   19   21 1
    31   19   41 1
    32   20   42 1
    33   21   22 1
    34   21   43 1
    35   22   23 ar
    36   22   31 ar
    37   23   24 ar
    38   23   44 1
    39   24   25 ar
    40   25   26 ar
    41   25   31 ar
    42   26   27 1
    43   26   28 ar
    44   27   45 1
    45   27   46 1
    46   28   29 ar
    47   29   30 ar
    48   29   47 1
    49   30   31 ar
@<TRIPOS>SUBSTRUCTURE
     1 ACP         1 GROUP 0 A     ****
@<TRIPOS>MOLECULE
[[5-(6-aminopurin-9-yl)-3,4-dihydroxy-tetrahydrofuran-2-yl]methoxy-oxido-phosphoryl]oxy-(phosphonomethyl)phosphinate
   47    49     1     0     0
SMALL
USER_CHARGES

@<TRIPOS>ATOM
      1 PG          1.8686    5.9975    0.4669 P.3       1 ACP         1.6478
      2 O1G         2.7453    6.8251   -0.4239 O.2       1 ACP        -0.9103
      3 O2G         2.6460    5.0123    1.4845 O.3       1 ACP        -0.7989
      4 O3G         0.8350    5.0172   -0.2950 O.3       1 ACP        -0.7989
      5 PB         -0.3810    6.1810    2.7551 P.3       1 ACP         1.4947
      6 O1B        -1.0907    7.3023    3.4780 O.co2     1 ACP        -0.8554
      7 O2B         0.3736    5.0972    3.4896 O.co2     1 ACP        -0.8554
      8 C3B         0.7960    6.9583    1.5587 C.3       1 ACP        -0.6550
      9 PA         -2.5927    4.4187    1.8559 P.3       1 ACP         1.5921
     10 O1A        -3.1158    4.0380    0.4876 O.co2     1 ACP        -0.8561
     11 O2A        -3.5338    4.9255    2.9271 O.co2     1 ACP        -0.8561
     12 O3A        -1.3917    5.5091    1.6659 O.3       1 ACP        -0.8166
     13 O5'        -1.7337    3.1724    2.4754 O.3       1 ACP        -0.5737
     14 C5'        -0.8811    2.4285    1.6206 C.3       1 ACP         0.2197
     15 C4'        -0.1994    1.3333    2.4288 C.3       1 ACP         0.0944
     16 O4'        -1.1285    0.2356    2.5840 O.3       1 ACP        -0.4017
     17 C3'         1.0324    0.7610    1.7344 C.3       1 ACP         0.0859
     18 O3'         1.9175    0.2377    2.7247 O.3       1 ACP        -0.5941
     19 C2'         0.4468   -0.3802    0.9263 C.3       1 ACP         0.0924
     20 O2'         1.3993   -1.3703    0.5961 O.3       1 ACP        -0.5928
     21 C1'        -0.6159   -0.9100    1.8769 C.3       1 ACP         0.3967
     22 N9         -1.7127   -1.6108    1.2130 N.pl3     1 ACP        -0.6763
     23 C8         -2.8641   -1.0399    0.7392 C.ar      1 ACP         0.5586
     24 N7         -3.6659   -1.9257    0.1858 N.2       1 ACP        -0.5795
     25 C5         -3.0053   -3.1223    0.3069 C.ar      1 ACP        -0.2116
     26 C6         -3.3321   -4.4178   -0.0813 C.ar      1 ACP         0.7185
     27 N6         -4.5476   -4.6866   -0.7335 N.pl3     1 ACP        -0.9442
     28 N1         -2.4608   -5.4225    0.1773 N.ar      1 ACP        -0.8040
     29 C2         -1.3053   -5.1020    0.8081 C.ar      1 ACP         0.6560
     30 N3         -0.8788   -3.8921    1.2315 N.ar      1 ACP        -0.7058
     31 C4         -1.7870   -2.9477    0.9438 C.ar      1 ACP         0.5729
     32 HOG2        3.2385    4.3221    1.1178 H         1 ACP         0.4440
     33 HOG3        1.1892    4.3278   -0.8960 H         1 ACP         0.4440
     34 H3B1        1.4369    7.6131    2.1598 H         1 ACP         0.1084
     35 H3B2        0.1871    7.6071    0.9188 H         1 ACP         0.1084
     36 H5'1       -1.4802    1.9929    0.8148 H         1 ACP         0.0281
     37 H5'2       -0.1370    3.1043    1.1873 H         1 ACP         0.0281
     38 H4'         0.0403    1.7078    3.4343 H         1 ACP         0.1082
     39 H3'         1.5906    1.4859    1.1353 H         1 ACP         0.0650
     40 HO3'        2.1521    0.9800    3.3017 H         1 ACP         0.4300
     41 H2'        -0.0017    0.0018    0.0005 H         1 ACP         0.0785
     42 HO2'        0.9369   -2.0558    0.0825 H         1 ACP         0.4275
     43 H1'        -0.1998   -1.6319    2.6178 H         1 ACP         0.1009
     44 H8         -3.0609    0.0200    0.8250 H         1 ACP         0.1067
     45 HN61       -5.2046   -3.9433   -0.8775 H         1 ACP         0.4213
     46 HN62       -4.7849   -5.6332   -0.9625 H         1 ACP         0.4213
     47 H2         -0.6318   -5.9307    0.9993 H         1 ACP         0.0365
@<TRIPOS>BOND
     1    1    2 2
     2    1    3 1
     3    1    4 1
     4    1    8 1
     5    3   32 1
     6    4   33 1
     7    5    6 2
     8    5    7 1
     9    5    8 1
    10    5   12 1
    11    8   34 1
    12    8   35 1
    13    9   10 2
    14    9   11 1
    15    9   12 1
    16    9   13 1
    17   13   14 1
    18   14   15 1
    19   14   36 1
    20   14   37 1
    21   15   16 1
    22   15   17 1
    23   15   38 1
    24   16   21 1
    25   17   18 1
    26   17   19 1
    27   17   39 1
    28   18   40 1
    29   19   20 1
    30   19   21 1
    31   19   41 1
    32   20   42 1
    33   21   22 1
    34   21   43 1
    35   22   23 ar
    36   22   31 ar
    37   23   24 ar
    38   23   44 1
    39   24   25 ar
    40   25   26 ar
    41   25   31 ar
    42   26   27 1
    43   26   28 ar
    44   27   45 1
    45   27   46 1
    46   28   29 ar
    47   29   30 ar
    48   29   47 1
    49   30   31 ar
@<TRIPOS>SUBSTRUCTURE
     1 ACP         1 GROUP 0 A     ****
@<TRIPOS>MOLECULE
[[5-(6-aminopurin-9-yl)-3,4-dihydroxy-tetrahydrofuran-2-yl]methoxy-oxido-phosphoryl]oxy-(phosphonomethyl)phosphinate
   47    49     1     0     0
SMALL
USER_CHARGES

@<TRIPOS>ATOM
      1 PG         -1.7543    4.2908   -2.7280 P.3       1 ACP         1.6478
      2 O1G        -0.8990    3.4042   -1.8739 O.2       1 ACP        -0.9103
      3 O2G        -2.1260    3.7014   -4.1856 O.3       1 ACP        -0.7989
      4 O3G        -1.1342    5.7464   -3.0541 O.3       1 ACP        -0.7989
      5 PB         -3.5712    5.5536   -0.3969 P.3       1 ACP         1.4947
      6 O1B        -5.0549    5.6943   -0.1467 O.co2     1 ACP        -0.8554
      7 O2B        -2.6379    6.7420   -0.4057 O.co2     1 ACP        -0.8554
      8 C3B        -3.3683    4.6812   -2.0151 C.3       1 ACP        -0.6550
      9 PA         -2.5401    4.4095    2.1396 P.3       1 ACP         1.5921
     10 O1A        -3.7865    4.6313    2.9690 O.co2     1 ACP        -0.8561
     11 O2A        -1.3389    5.3166    2.2956 O.co2     1 ACP        -0.8561
     12 O3A        -2.9654    4.3827    0.5629 O.3       1 ACP        -0.8166
     13 O5'        -2.0402    2.8619    2.3132 O.3       1 ACP        -0.5737
     14 C5'        -0.8811    2.4285    1.6206 C.3       1 ACP         0.2197
     15 C4'        -0.1994    1.3333    2.4288 C.3       1 ACP         0.0944
     16 O4'        -1.1285    0.2356    2.5840 O.3       1 ACP        -0.4017
     17 C3'         1.0324    0.7610    1.7344 C.3       1 ACP         0.0859
     18 O3'         1.9175    0.2377    2.7247 O.3       1 ACP        -0.5941
     19 C2'         0.4468   -0.3802    0.9263 C.3       1 ACP         0.0924
     20 O2'         1.3993   -1.3703    0.5961 O.3       1 ACP        -0.5928
     21 C1'        -0.6159   -0.9100    1.8769 C.3       1 ACP         0.3967
     22 N9         -1.7127   -1.6108    1.2130 N.pl3     1 ACP        -0.6763
     23 C8         -1.7712   -2.9546    0.9544 C.ar      1 ACP         0.5586
     24 N7         -2.8883   -3.2948    0.3462 N.2       1 ACP        -0.5795
     25 C5         -3.5834   -2.1202    0.2043 C.ar      1 ACP        -0.2116
     26 C6         -4.8225   -1.8251   -0.3554 C.ar      1 ACP         0.7185
     27 N6         -5.6154   -2.8394   -0.9189 N.pl3     1 ACP        -0.9442
     28 N1         -5.2589   -0.5425   -0.3507 N.ar      1 ACP        -0.8040
     29 C2         -4.4510    0.3913    0.2069 C.ar      1 ACP         0.6560
     30 N3         -3.2368    0.2296    0.7767 N.ar      1 ACP        -0.7058
     31 C4         -2.8684   -1.0596    0.7376 C.ar      1 ACP         0.5729
     32 HOG2       -1.4010    3.4884   -4.8109 H         1 ACP         0.4440
     33 HOG3       -0.2785    5.8025   -3.5302 H         1 ACP         0.4440
     34 H3B1       -3.9154    5.2868   -2.7464 H         1 ACP         0.1084
     35 H3B2       -3.9110    3.7344   -1.9146 H         1 ACP         0.1084
     36 H5'1       -1.1771    2.0504    0.6370 H         1 ACP         0.0281
     37 H5'2       -0.2083    3.2816    1.4878 H         1 ACP         0.0281
     38 H4'         0.0403    1.7078    3.4343 H         1 ACP         0.1082
     39 H3'         1.5906    1.4859    1.1353 H         1 ACP         0.0650
     40 HO3'        2.6839   -0.1150    2.2479 H         1 ACP         0.4300
     41 H2'        -0.0017    0.0018    0.0005 H         1 ACP         0.0785
     42 HO2'        2.0953   -0.9375    0.0709 H         1 ACP         0.4275
     43 H1'        -0.1998   -1.6319    2.6178 H         1 ACP         0.1009
     44 H8         -0.9745   -3.6312    1.2318 H         1 ACP         0.1067
     45 HN61       -5.2619   -3.7766   -0.9586 H         1 ACP         0.4213
     46 HN62       -6.4834   -2.5990   -1.3590 H         1 ACP         0.4213
     47 H2         -4.8317    1.4071    0.1930 H         1 ACP         0.0365
@<TRIPOS>BOND
     1    1    2 2
     2    1    3 1
     3    1    4 1
     4    1    8 1
     5    3   32 1
     6    4   33 1
     7    5    6 2
     8    5    7 1
     9    5    8 1
    10    5   12 1
    11    8   34 1
    12    8   35 1
    13    9   10 2
    14    9   11 1
    15    9   12 1
    16    9   13 1
    17   13   14 1
    18   14   15 1
    19   14   36 1
    20   14   37 1
    21   15   16 1
    22   15   17 1
    23   15   38 1
    24   16   21 1
    25   17   18 1
    26   17   19 1
    27   17   39 1
    28   18   40 1
    29   19   20 1
    30   19   21 1
    31   19   41 1
    32   20   42 1
    33   21   22 1
    34   21   43 1
    35   22   23 ar
    36   22   31 ar
    37   23   24 ar
    38   23   44 1
    39   24   25 ar
    40   25   26 ar
    41   25   31 ar
    42   26   27 1
    43   26   28 ar
    44   27   45 1
    45   27   46 1
    46   28   29 ar
    47   29   30 ar
    48   29   47 1
    49   30   31 ar
@<TRIPOS>SUBSTRUCTURE
     1 ACP         1 GROUP 0 A     ****
@<TRIPOS>MOLECULE
[[5-(6-aminopurin-9-yl)-3,4-dihydroxy-tetrahydrofuran-2-yl]methoxy-oxido-phosphoryl]oxy-(phosphonomethyl)phosphinate
   47    49     1     0     0
SMALL
USER_CHARGES

@<TRIPOS>ATOM
      1 PG         -2.6646    2.0164   -2.8281 P.3       1 ACP         1.6478
      2 O1G        -2.6574    0.8142   -3.7236 O.2       1 ACP        -0.9103
      3 O2G        -2.3429    3.4239   -3.5532 O.3       1 ACP        -0.7989
      4 O3G        -1.6143    1.9728   -1.6014 O.3       1 ACP        -0.7989
      5 PB         -4.5197    3.7423   -0.8508 P.3       1 ACP         1.4947
      6 O1B        -5.9516    3.6606   -0.3748 O.co2     1 ACP        -0.8554
      7 O2B        -3.9587    4.9793   -1.5132 O.co2     1 ACP        -0.8554
      8 C3B        -4.2443    2.3250   -2.0067 C.3       1 ACP        -0.6550
      9 PA         -2.9648    4.0418    1.6589 P.3       1 ACP         1.5921
     10 O1A        -4.1350    4.3296    2.5746 O.co2     1 ACP        -0.8561
     11 O2A        -2.0534    5.1587    1.1987 O.co2     1 ACP        -0.8561
     12 O3A        -3.5204    3.2528    0.3412 O.3       1 ACP        -0.8166
     13 O5'        -2.0402    2.8619    2.3132 O.3       1 ACP        -0.5737
     14 C5'        -0.8811    2.4285    1.6206 C.3       1 ACP         0.2197
     15 C4'        -0.1994    1.3333    2.4288 C.3       1 ACP         0.0944
     16 O4'        -1.1285    0.2356    2.5840 O.3       1 ACP        -0.4017
     17 C3'         1.0324    0.7610    1.7344 C.3       1 ACP         0.0859
     18 O3'         1.9175    0.2377    2.7247 O.3       1 ACP        -0.5941
     19 C2'         0.4468   -0.3802    0.9263 C.3       1 ACP         0.0924
     20 O2'         1.3993   -1.3703    0.5961 O.3       1 ACP        -0.5928
     21 C1'        -0.6159   -0.9100    1.8769 C.3       1 ACP         0.3967
     22 N9         -1.7127   -1.6108    1.2130 N.pl3     1 ACP        -0.6763
     23 C8         -2.8641   -1.0399    0.7392 C.ar      1 ACP         0.5586
     24 N7         -3.6659   -1.9257    0.1858 N.2       1 ACP        -0.5795
     25 C5         -3.0053   -3.1223    0.3069 C.ar      1 ACP        -0.2116
     26 C6         -3.3321   -4.4178   -0.0813 C.ar      1 ACP         0.7185
     27 N6         -4.5476   -4.6866   -0.7335 N.pl3     1 ACP        -0.9442
     28 N1         -2.4608   -5.4225    0.1773 N.ar      1 ACP        -0.8040
     29 C2         -1.3053   -5.1020    0.8081 C.ar      1 ACP         0.6560
     30 N3         -0.8788   -3.8921    1.2315 N.ar      1 ACP        -0.7058
     31 C4         -1.7870   -2.9477    0.9438 C.ar      1 ACP         0.5729
     32 HOG2       -1.4810    3.5384   -4.0070 H         1 ACP         0.4440
     33 HOG3       -0.6565    1.8961   -1.7983 H         1 ACP         0.4440
     34 H3B1       -5.0079    2.4282   -2.7859 H         1 ACP         0.1084
     35 H3B2       -4.4900    1.4219   -1.4365 H         1 ACP         0.1084
     36 H5'1       -1.1771    2.0504    0.6370 H         1 ACP         0.0281
     37 H5'2       -0.2083    3.2816    1.4878 H         1 ACP         0.0281
     38 H4'         0.0403    1.7078    3.4343 H         1 ACP         0.1082
     39 H3'         1.5906    1.4859    1.1353 H         1 ACP         0.0650
     40 HO3'        2.6839   -0.1150    2.2479 H         1 ACP         0.4300
     41 H2'        -0.0017    0.0018    0.0005 H         1 ACP         0.0785
     42 HO2'        0.9369   -2.0558    0.0825 H         1 ACP         0.4275
     43 H1'        -0.1998   -1.6319    2.6178 H         1 ACP         0.1009
     44 H8         -3.0609    0.0200    0.8250 H         1 ACP         0.1067
     45 HN61       -4.7432   -5.6184   -1.0469 H         1 ACP         0.4213
     46 HN62       -5.1624   -3.9284   -0.9616 H         1 ACP         0.4213
     47 H2         -0.6318   -5.9307    0.9993 H         1 ACP         0.0365
@<TRIPOS>BOND
     1    1    2 2
     2    1    3 1
     3    1    4 1
     4    1    8 1
     5    3   32 1
     6    4   33 1
     7    5    6 2
     8    5    7 1
     9    5    8 1
    10    5   12 1
    11    8   34 1
    12    8   35 1
    13    9   10 2
    14    9   11 1
    15    9   12 1
    16    9   13 1
    17   13   14 1
    18   14   15 1
    19   14   36 1
    20   14   37 1
    21   15   16 1
    22   15   17 1
    23   15   38 1
    24   16   21 1
    25   17   18 1
    26   17   19 1
    27   17   39 1
    28   18   40 1
    29   19   20 1
    30   19   21 1
    31   19   41 1
    32   20   42 1
    33   21   22 1
    34   21   43 1
    35   22   23 ar
    36   22   31 ar
    37   23   24 ar
    38   23   44 1
    39   24   25 ar
    40   25   26 ar
    41   25   31 ar
    42   26   27 1
    43   26   28 ar
    44   27   45 1
    45   27   46 1
    46   28   29 ar
    47   29   30 ar
    48   29   47 1
    49   30   31 ar
@<TRIPOS>SUBSTRUCTURE
     1 ACP         1 GROUP 0 A     ****
@<TRIPOS>MOLECULE
[[5-(6-aminopurin-9-yl)-3,4-dihydroxy-tetrahydrofuran-2-yl]methoxy-oxido-phosphoryl]oxy-(phosphonomethyl)phosphinate
   47    49     1     0     0
SMALL
USER_CHARGES

@<TRIPOS>ATOM
      1 PG          1.8831    5.7909    3.4125 P.3       1 ACP         1.6478
      2 O1G         2.3142    6.4002    2.1124 O.2       1 ACP        -0.9103
      3 O2G         2.9967    5.7932    4.5830 O.3       1 ACP        -0.7989
      4 O3G         1.4190    4.2456    3.3333 O.3       1 ACP        -0.7989
      5 PB         -1.1852    6.7465    3.3680 P.3       1 ACP         1.4947
      6 O1B        -0.9854    7.5130    2.0811 O.co2     1 ACP        -0.8554
      7 O2B        -2.1739    7.1848    4.4234 O.co2     1 ACP        -0.8554
      8 C3B         0.4680    6.6068    4.1854 C.3       1 ACP        -0.6550
      9 PA         -2.5401    4.4095    2.1396 P.3       1 ACP         1.5921
     10 O1A        -2.3764    4.8319    0.6956 O.co2     1 ACP        -0.8561
     11 O2A        -3.8732    4.5590    2.8399 O.co2     1 ACP        -0.8561
     12 O3A        -1.4003    5.1652    3.0325 O.3       1 ACP        -0.8166
     13 O5'        -2.0402    2.8619    2.3132 O.3       1 ACP        -0.5737
     14 C5'        -0.8811    2.4285    1.6206 C.3       1 ACP         0.2197
     15 C4'        -0.1994    1.3333    2.4288 C.3       1 ACP         0.0944
     16 O4'        -1.1285    0.2356    2.5840 O.3       1 ACP        -0.4017
     17 C3'         1.0324    0.7610    1.7344 C.3       1 ACP         0.0859
     18 O3'         1.9175    0.2377    2.7247 O.3       1 ACP        -0.5941
     19 C2'         0.4468   -0.3802    0.9263 C.3       1 ACP         0.0924
     20 O2'         1.3993   -1.3703    0.5961 O.3       1 ACP        -0.5928
     21 C1'        -0.6159   -0.9100    1.8769 C.3       1 ACP         0.3967
     22 N9         -1.7127   -1.6108    1.2130 N.pl3     1 ACP        -0.6763
     23 C8         -1.7712   -2.9546    0.9544 C.ar      1 ACP         0.5586
     24 N7         -2.8883   -3.2948    0.3462 N.2       1 ACP        -0.5795
     25 C5         -3.5834   -2.1202    0.2043 C.ar      1 ACP        -0.2116
     26 C6         -4.8225   -1.8251   -0.3554 C.ar      1 ACP         0.7185
     27 N6         -5.6154   -2.8394   -0.9189 N.pl3     1 ACP        -0.9442
     28 N1         -5.2589   -0.5425   -0.3507 N.ar      1 ACP        -0.8040
     29 C2         -4.4510    0.3913    0.2069 C.ar      1 ACP         0.6560
     30 N3         -3.2368    0.2296    0.7767 N.ar      1 ACP        -0.7058
     31 C4         -2.8684   -1.0596    0.7376 C.ar      1 ACP         0.5729
     32 HOG2        3.8448    5.3239    4.4328 H         1 ACP         0.4440
     33 HOG3        2.0593    3.5727    3.0184 H         1 ACP         0.4440
     34 H3B1        0.2814    6.1086    5.1434 H         1 ACP         0.1084
     35 H3B2        0.7763    7.6333    4.4139 H         1 ACP         0.1084
     36 H5'1       -1.1771    2.0504    0.6370 H         1 ACP         0.0281
     37 H5'2       -0.2083    3.2816    1.4878 H         1 ACP         0.0281
     38 H4'         0.0403    1.7078    3.4343 H         1 ACP         0.1082
     39 H3'         1.5906    1.4859    1.1353 H         1 ACP         0.0650
     40 HO3'        2.6839   -0.1150    2.2479 H         1 ACP         0.4300
     41 H2'        -0.0017    0.0018    0.0005 H         1 ACP         0.0785
     42 HO2'        2.0953   -0.9375    0.0709 H         1 ACP         0.4275
     43 H1'        -0.1998   -1.6319    2.6178 H         1 ACP         0.1009
     44 H8         -0.9745   -3.6312    1.2318 H         1 ACP         0.1067
     45 HN61       -5.2619   -3.7766   -0.9586 H         1 ACP         0.4213
     46 HN62       -6.4834   -2.5990   -1.3590 H         1 ACP         0.4213
     47 H2         -4.8317    1.4071    0.1930 H         1 ACP         0.0365
@<TRIPOS>BOND
     1    1    2 2
     2    1    3 1
     3    1    4 1
     4    1    8 1
     5    3   32 1
     6    4   33 1
     7    5    6 2
     8    5    7 1
     9    5    8 1
    10    5   12 1
    11    8   34 1
    12    8   35 1
    13    9   10 2
    14    9   11 1
    15    9   12 1
    16    9   13 1
    17   13   14 1
    18   14   15 1
    19   14   36 1
    20   14   37 1
    21   15   16 1
    22   15   17 1
    23   15   38 1
    24   16   21 1
    25   17   18 1
    26   17   19 1
    27   17   39 1
    28   18   40 1
    29   19   20 1
    30   19   21 1
    31   19   41 1
    32   20   42 1
    33   21   22 1
    34   21   43 1
    35   22   23 ar
    36   22   31 ar
    37   23   24 ar
    38   23   44 1
    39   24   25 ar
    40   25   26 ar
    41   25   31 ar
    42   26   27 1
    43   26   28 ar
    44   27   45 1
    45   27   46 1
    46   28   29 ar
    47   29   30 ar
    48   29   47 1
    49   30   31 ar
@<TRIPOS>SUBSTRUCTURE
     1 ACP         1 GROUP 0 A     ****
@<TRIPOS>MOLECULE
[[5-(6-aminopurin-9-yl)-3,4-dihydroxy-tetrahydrofuran-2-yl]methoxy-oxido-phosphoryl]oxy-(phosphonomethyl)phosphinate
   47    49     1     0     0
SMALL
USER_CHARGES

@<TRIPOS>ATOM
      1 PG         -4.8294   -1.3252   -3.5165 P.3       1 ACP         1.6478
      2 O1G        -6.0118   -0.7962   -4.2710 O.2       1 ACP        -0.9103
      3 O2G        -5.0967   -2.6697   -2.6614 O.3       1 ACP        -0.7989
      4 O3G        -4.1860   -0.3105   -2.4367 O.3       1 ACP        -0.7989
      5 PB         -2.5485   -0.5542   -5.6455 P.3       1 ACP         1.4947
      6 O1B        -3.5670   -0.0223   -6.6270 O.co2     1 ACP        -0.8554
      7 O2B        -1.2555   -1.1961   -6.0923 O.co2     1 ACP        -0.8554
      8 C3B        -3.4193   -1.7688   -4.5558 C.3       1 ACP        -0.6550
      9 PA         -1.6496    2.0940   -4.6528 P.3       1 ACP         1.5921
     10 O1A        -2.6557    2.9329   -5.4107 O.co2     1 ACP        -0.8561
     11 O2A        -0.2125    2.0061   -5.1188 O.co2     1 ACP        -0.8561
     12 O3A        -2.2405    0.5778   -4.5128 O.3       1 ACP        -0.8166
     13 O5'        -1.6520    2.5338   -3.0775 O.3       1 ACP        -0.5737
     14 C5'        -0.7794    1.8744   -2.1748 C.3       1 ACP         0.2197
     15 C4'        -0.9699    2.4597   -0.7819 C.3       1 ACP         0.0944
     16 O4'        -2.1475    1.8640   -0.2014 O.3       1 ACP        -0.4017
     17 C3'         0.1697    2.1347    0.1695 C.3       1 ACP         0.0859
     18 O3'         0.1809    3.0982    1.2223 O.3       1 ACP        -0.5941
     19 C2'        -0.2543    0.7880    0.7187 C.3       1 ACP         0.0924
     20 O2'         0.3606    0.4944    1.9582 O.3       1 ACP        -0.5928
     21 C1'        -1.7682    0.9516    0.8548 C.3       1 ACP         0.3967
     22 N9         -2.5926   -0.2553    0.7436 N.pl3     1 ACP        -0.6763
     23 C8         -2.2879   -1.3752    0.0161 C.ar      1 ACP         0.5586
     24 N7         -3.2214   -2.2987    0.1123 N.2       1 ACP        -0.5795
     25 C5         -4.1723   -1.7531    0.9377 C.ar      1 ACP        -0.2116
     26 C6         -5.3870   -2.2342    1.4159 C.ar      1 ACP         0.7185
     27 N6         -5.8433   -3.5142    1.0574 N.pl3     1 ACP        -0.9442
     28 N1         -6.1289   -1.4512    2.2356 N.ar      1 ACP        -0.8040
     29 C2         -5.6370   -0.2275    2.5461 C.ar      1 ACP         0.6560
     30 N3         -4.4810    0.3469    2.1476 N.ar      1 ACP        -0.7058
     31 C4         -3.7996   -0.4810    1.3417 C.ar      1 ACP         0.5729
     32 HOG2       -5.7749   -2.6551   -1.9529 H         1 ACP         0.4440
     33 HOG3       -4.7443    0.0148   -1.6988 H         1 ACP         0.4440
     34 H3B1       -2.6447   -2.1859   -3.9024 H         1 ACP         0.1084
     35 H3B2       -3.7506   -2.5787   -5.2157 H         1 ACP         0.1084
     36 H5'1       -1.0116    0.8048   -2.1755 H         1 ACP         0.0281
     37 H5'2        0.2522    2.0163   -2.5121 H         1 ACP         0.0281
     38 H4'        -1.1469    3.5409   -0.8522 H         1 ACP         0.1082
     39 H3'         1.1601    2.1310   -0.2934 H         1 ACP         0.0650
     40 HO3'        0.9173    2.8584    1.8048 H         1 ACP         0.4300
     41 H2'        -0.0024   -0.0091    0.0062 H         1 ACP         0.0785
     42 HO2'        0.0384   -0.3797    2.2403 H         1 ACP         0.4275
     43 H1'        -2.0584    1.4255    1.8301 H         1 ACP         0.1009
     44 H8         -1.3765   -1.4593   -0.5599 H         1 ACP         0.1067
     45 HN61       -5.3086   -4.0656    0.4134 H         1 ACP         0.4213
     46 HN62       -6.7426   -3.8233    1.3745 H         1 ACP         0.4213
     47 H2         -6.2570    0.3723    3.2040 H         1 ACP         0.0365
@<TRIPOS>BOND
     1    1    2 2
     2    1    3 1
     3    1    4 1
     4    1    8 1
     5    3   32 1
     6    4   33 1
     7    5    6 2
     8    5    7 1
     9    5    8 1
    10    5   12 1
    11    8   34 1
    12    8   35 1
    13    9   10 2
    14    9   11 1
    15    9   12 1
    16    9   13 1
    17   13   14 1
    18   14   15 1
    19   14   36 1
    20   14   37 1
    21   15   16 1
    22   15   17 1
    23   15   38 1
    24   16   21 1
    25   17   18 1
    26   17   19 1
    27   17   39 1
    28   18   40 1
    29   19   20 1
    30   19   21 1
    31   19   41 1
    32   20   42 1
    33   21   22 1
    34   21   43 1
    35   22   23 ar
    36   22   31 ar
    37   23   24 ar
    38   23   44 1
    39   24   25 ar
    40   25   26 ar
    41   25   31 ar
    42   26   27 1
    43   26   28 ar
    44   27   45 1
    45   27   46 1
    46   28   29 ar
    47   29   30 ar
    48   29   47 1
    49   30   31 ar
@<TRIPOS>SUBSTRUCTURE
     1 ACP         1 GROUP 0 A     ****
@<TRIPOS>MOLECULE
[[5-(6-aminopurin-9-yl)-3,4-dihydroxy-tetrahydrofuran-2-yl]methoxy-oxido-phosphoryl]oxy-(phosphonomethyl)phosphinate
   47    49     1     0     0
SMALL
USER_CHARGES

@<TRIPOS>ATOM
      1 PG         -0.7571    7.5099    4.3835 P.3       1 ACP         1.6478
      2 O1G         0.4740    8.1044    4.9985 O.2       1 ACP        -0.9103
      3 O2G        -2.1509    8.2094    4.8058 O.3       1 ACP        -0.7989
      4 O3G        -1.0053    5.9460    4.7033 O.3       1 ACP        -0.7989
      5 PB         -2.1970    6.9070    1.5741 P.3       1 ACP         1.4947
      6 O1B        -1.8589    7.1420    0.1201 O.co2     1 ACP        -0.8554
      7 O2B        -3.4764    7.4147    2.1976 O.co2     1 ACP        -0.8554
      8 C3B        -0.7929    7.5717    2.5779 C.3       1 ACP        -0.6550
      9 PA         -2.9648    4.0418    1.6589 P.3       1 ACP         1.5921
     10 O1A        -3.0690    3.8284    0.1642 O.co2     1 ACP        -0.8561
     11 O2A        -4.2106    4.1925    2.5047 O.co2     1 ACP        -0.8561
     12 O3A        -1.9968    5.3287    1.9318 O.3       1 ACP        -0.8166
     13 O5'        -2.0402    2.8619    2.3132 O.3       1 ACP        -0.5737
     14 C5'        -0.8811    2.4285    1.6206 C.3       1 ACP         0.2197
     15 C4'        -0.1994    1.3333    2.4288 C.3       1 ACP         0.0944
     16 O4'        -1.1285    0.2356    2.5840 O.3       1 ACP        -0.4017
     17 C3'         1.0324    0.7610    1.7344 C.3       1 ACP         0.0859
     18 O3'         1.9175    0.2377    2.7247 O.3       1 ACP        -0.5941
     19 C2'         0.4468   -0.3802    0.9263 C.3       1 ACP         0.0924
     20 O2'         1.3993   -1.3703    0.5961 O.3       1 ACP        -0.5928
     21 C1'        -0.6159   -0.9100    1.8769 C.3       1 ACP         0.3967
     22 N9         -1.7127   -1.6108    1.2130 N.pl3     1 ACP        -0.6763
     23 C8         -2.8641   -1.0399    0.7392 C.ar      1 ACP         0.5586
     24 N7         -3.6659   -1.9257    0.1858 N.2       1 ACP        -0.5795
     25 C5         -3.0053   -3.1223    0.3069 C.ar      1 ACP        -0.2116
     26 C6         -3.3321   -4.4178   -0.0813 C.ar      1 ACP         0.7185
     27 N6         -4.5476   -4.6866   -0.7335 N.pl3     1 ACP        -0.9442
     28 N1         -2.4608   -5.4225    0.1773 N.ar      1 ACP        -0.8040
     29 C2         -1.3053   -5.1020    0.8081 C.ar      1 ACP         0.6560
     30 N3         -0.8788   -3.8921    1.2315 N.ar      1 ACP        -0.7058
     31 C4         -1.7870   -2.9477    0.9438 C.ar      1 ACP         0.5729
     32 HOG2       -2.4075    8.2240    5.7524 H         1 ACP         0.4440
     33 HOG3       -1.1108    5.6627    5.6364 H         1 ACP         0.4440
     34 H3B1       -0.6896    8.6213    2.2805 H         1 ACP         0.1084
     35 H3B2        0.1026    7.0494    2.2222 H         1 ACP         0.1084
     36 H5'1       -1.1771    2.0504    0.6370 H         1 ACP         0.0281
     37 H5'2       -0.2083    3.2816    1.4878 H         1 ACP         0.0281
     38 H4'         0.0403    1.7078    3.4343 H         1 ACP         0.1082
     39 H3'         1.5906    1.4859    1.1353 H         1 ACP         0.0650
     40 HO3'        2.6839   -0.1150    2.2479 H         1 ACP         0.4300
     41 H2'        -0.0017    0.0018    0.0005 H         1 ACP         0.0785
     42 HO2'        0.9369   -2.0558    0.0825 H         1 ACP         0.4275
     43 H1'        -0.1998   -1.6319    2.6178 H         1 ACP         0.1009
     44 H8         -3.0609    0.0200    0.8250 H         1 ACP         0.1067
     45 HN61       -4.7432   -5.6184   -1.0469 H         1 ACP         0.4213
     46 HN62       -5.1624   -3.9284   -0.9616 H         1 ACP         0.4213
     47 H2         -0.6318   -5.9307    0.9993 H         1 ACP         0.0365
@<TRIPOS>BOND
     1    1    2 2
     2    1    3 1
     3    1    4 1
     4    1    8 1
     5    3   32 1
     6    4   33 1
     7    5    6 2
     8    5    7 1
     9    5    8 1
    10    5   12 1
    11    8   34 1
    12    8   35 1
    13    9   10 2
    14    9   11 1
    15    9   12 1
    16    9   13 1
    17   13   14 1
    18   14   15 1
    19   14   36 1
    20   14   37 1
    21   15   16 1
    22   15   17 1
    23   15   38 1
    24   16   21 1
    25   17   18 1
    26   17   19 1
    27   17   39 1
    28   18   40 1
    29   19   20 1
    30   19   21 1
    31   19   41 1
    32   20   42 1
    33   21   22 1
    34   21   43 1
    35   22   23 ar
    36   22   31 ar
    37   23   24 ar
    38   23   44 1
    39   24   25 ar
    40   25   26 ar
    41   25   31 ar
    42   26   27 1
    43   26   28 ar
    44   27   45 1
    45   27   46 1
    46   28   29 ar
    47   29   30 ar
    48   29   47 1
    49   30   31 ar
@<TRIPOS>SUBSTRUCTURE
     1 ACP         1 GROUP 0 A     ****
@<TRIPOS>MOLECULE
[[5-(6-aminopurin-9-yl)-3,4-dihydroxy-tetrahydrofuran-2-yl]methoxy-oxido-phosphoryl]oxy-(phosphonomethyl)phosphinate
   47    49     1     0     0
SMALL
USER_CHARGES

@<TRIPOS>ATOM
      1 PG          2.9168    5.0040    2.3772 P.3       1 ACP         1.6478
      2 O1G         2.3071    4.6806    1.0464 O.2       1 ACP        -0.9103
      3 O2G         4.2711    5.8833    2.3248 O.3       1 ACP        -0.7989
      4 O3G         3.3272    3.7284    3.2795 O.3       1 ACP        -0.7989
      5 PB          0.1959    5.3518    4.0522 P.3       1 ACP         1.4947
      6 O1B        -0.3873    6.4213    4.9464 O.co2     1 ACP        -0.8554
      7 O2B         0.3768    3.9242    4.5137 O.co2     1 ACP        -0.8554
      8 C3B         1.8456    5.9581    3.4761 C.3       1 ACP        -0.6550
      9 PA         -2.0037    4.7529    2.1525 P.3       1 ACP         1.5921
     10 O1A        -2.1554    4.9422    0.6587 O.co2     1 ACP        -0.8561
     11 O2A        -3.0660    5.2571    3.1051 O.co2     1 ACP        -0.8561
     12 O3A        -0.5638    5.3737    2.6095 O.3       1 ACP        -0.8166
     13 O5'        -1.7337    3.1724    2.4754 O.3       1 ACP        -0.5737
     14 C5'        -0.8811    2.4285    1.6206 C.3       1 ACP         0.2197
     15 C4'        -0.1994    1.3333    2.4288 C.3       1 ACP         0.0944
     16 O4'        -1.1285    0.2356    2.5840 O.3       1 ACP        -0.4017
     17 C3'         1.0324    0.7610    1.7344 C.3       1 ACP         0.0859
     18 O3'         1.9175    0.2377    2.7247 O.3       1 ACP        -0.5941
     19 C2'         0.4468   -0.3802    0.9263 C.3       1 ACP         0.0924
     20 O2'         1.3993   -1.3703    0.5961 O.3       1 ACP        -0.5928
     21 C1'        -0.6159   -0.9100    1.8769 C.3       1 ACP         0.3967
     22 N9         -1.7127   -1.6108    1.2130 N.pl3     1 ACP        -0.6763
     23 C8         -2.8641   -1.0399    0.7392 C.ar      1 ACP         0.5586
     24 N7         -3.6659   -1.9257    0.1858 N.2       1 ACP        -0.5795
     25 C5         -3.0053   -3.1223    0.3069 C.ar      1 ACP        -0.2116
     26 C6         -3.3321   -4.4178   -0.0813 C.ar      1 ACP         0.7185
     27 N6         -4.5476   -4.6866   -0.7335 N.pl3     1 ACP        -0.9442
     28 N1         -2.4608   -5.4225    0.1773 N.ar      1 ACP        -0.8040
     29 C2         -1.3053   -5.1020    0.8081 C.ar      1 ACP         0.6560
     30 N3         -0.8788   -3.8921    1.2315 N.ar      1 ACP        -0.7058
     31 C4         -1.7870   -2.9477    0.9438 C.ar      1 ACP         0.5729
     32 HOG2        5.0506    5.5272    1.8476 H         1 ACP         0.4440
     33 HOG3        3.9822    3.0886    2.9279 H         1 ACP         0.4440
     34 H3B1        2.4144    6.1739    4.3875 H         1 ACP         0.1084
     35 H3B2        1.6558    6.9184    2.9832 H         1 ACP         0.1084
     36 H5'1       -1.4802    1.9929    0.8148 H         1 ACP         0.0281
     37 H5'2       -0.1370    3.1043    1.1873 H         1 ACP         0.0281
     38 H4'         0.0403    1.7078    3.4343 H         1 ACP         0.1082
     39 H3'         1.5906    1.4859    1.1353 H         1 ACP         0.0650
     40 HO3'        2.6839   -0.1150    2.2479 H         1 ACP         0.4300
     41 H2'        -0.0017    0.0018    0.0005 H         1 ACP         0.0785
     42 HO2'        2.0953   -0.9375    0.0709 H         1 ACP         0.4275
     43 H1'        -0.1998   -1.6319    2.6178 H         1 ACP         0.1009
     44 H8         -3.0609    0.0200    0.8250 H         1 ACP         0.1067
     45 HN61       -5.2046   -3.9433   -0.8775 H         1 ACP         0.4213
     46 HN62       -4.7849   -5.6332   -0.9625 H         1 ACP         0.4213
     47 H2         -0.6318   -5.9307    0.9993 H         1 ACP         0.0365
@<TRIPOS>BOND
     1    1    2 2
     2    1    3 1
     3    1    4 1
     4    1    8 1
     5    3   32 1
     6    4   33 1
     7    5    6 2
     8    5    7 1
     9    5    8 1
    10    5   12 1
    11    8   34 1
    12    8   35 1
    13    9   10 2
    14    9   11 1
    15    9   12 1
    16    9   13 1
    17   13   14 1
    18   14   15 1
    19   14   36 1
    20   14   37 1
    21   15   16 1
    22   15   17 1
    23   15   38 1
    24   16   21 1
    25   17   18 1
    26   17   19 1
    27   17   39 1
    28   18   40 1
    29   19   20 1
    30   19   21 1
    31   19   41 1
    32   20   42 1
    33   21   22 1
    34   21   43 1
    35   22   23 ar
    36   22   31 ar
    37   23   24 ar
    38   23   44 1
    39   24   25 ar
    40   25   26 ar
    41   25   31 ar
    42   26   27 1
    43   26   28 ar
    44   27   45 1
    45   27   46 1
    46   28   29 ar
    47   29   30 ar
    48   29   47 1
    49   30   31 ar
@<TRIPOS>SUBSTRUCTURE
     1 ACP         1 GROUP 0 A     ****
@<TRIPOS>MOLECULE
[[5-(6-aminopurin-9-yl)-3,4-dihydroxy-tetrahydrofuran-2-yl]methoxy-oxido-phosphoryl]oxy-(phosphonomethyl)phosphinate
   47    49     1     0     0
SMALL
USER_CHARGES

@<TRIPOS>ATOM
      1 PG         -5.9145    3.0806   -1.7161 P.3       1 ACP         1.6478
      2 O1G        -7.2803    3.5154   -1.2770 O.2       1 ACP        -0.9103
      3 O2G        -4.8409    4.2699   -1.9235 O.3       1 ACP        -0.7989
      4 O3G        -5.8606    2.2728   -3.1141 O.3       1 ACP        -0.7989
      5 PB         -4.6898    2.4297    1.1832 P.3       1 ACP         1.4947
      6 O1B        -3.9990    1.2448    1.8176 O.co2     1 ACP        -0.8554
      7 O2B        -5.9350    3.0494    1.7740 O.co2     1 ACP        -0.8554
      8 C3B        -5.0806    1.9658   -0.5640 C.3       1 ACP        -0.6550
      9 PA         -2.5927    4.4187    1.8559 P.3       1 ACP         1.5921
     10 O1A        -3.4214    5.0525    2.9523 O.co2     1 ACP        -0.8561
     11 O2A        -1.6640    5.2600    1.0075 O.co2     1 ACP        -0.8561
     12 O3A        -3.5926    3.5929    0.8630 O.3       1 ACP        -0.8166
     13 O5'        -1.7337    3.1724    2.4754 O.3       1 ACP        -0.5737
     14 C5'        -0.8811    2.4285    1.6206 C.3       1 ACP         0.2197
     15 C4'        -0.1994    1.3333    2.4288 C.3       1 ACP         0.0944
     16 O4'        -1.1285    0.2356    2.5840 O.3       1 ACP        -0.4017
     17 C3'         1.0324    0.7610    1.7344 C.3       1 ACP         0.0859
     18 O3'         1.9175    0.2377    2.7247 O.3       1 ACP        -0.5941
     19 C2'         0.4468   -0.3802    0.9263 C.3       1 ACP         0.0924
     20 O2'         1.3993   -1.3703    0.5961 O.3       1 ACP        -0.5928
     21 C1'        -0.6159   -0.9100    1.8769 C.3       1 ACP         0.3967
     22 N9         -1.7127   -1.6108    1.2130 N.pl3     1 ACP        -0.6763
     23 C8         -2.5476   -1.0844    0.2632 C.ar      1 ACP         0.5586
     24 N7         -3.4391   -1.9591   -0.1536 N.2       1 ACP        -0.5795
     25 C5         -3.1701   -3.1016    0.5574 C.ar      1 ACP        -0.2116
     26 C6         -3.7593   -4.3620    0.5656 C.ar      1 ACP         0.7185
     27 N6         -4.8512   -4.6493   -0.2712 N.pl3     1 ACP        -0.9442
     28 N1         -3.2659   -5.3144    1.3932 N.ar      1 ACP        -0.8040
     29 C2         -2.2122   -4.9785    2.1759 C.ar      1 ACP         0.6560
     30 N3         -1.5595   -3.7985    2.2572 N.ar      1 ACP        -0.7058
     31 C4         -2.0986   -2.9054    1.4140 C.ar      1 ACP         0.5729
     32 HOG2       -5.0305    4.9717   -2.5820 H         1 ACP         0.4440
     33 HOG3       -6.1847    2.7115   -3.9292 H         1 ACP         0.4440
     34 H3B1       -5.6784    1.0497   -0.4985 H         1 ACP         0.1084
     35 H3B2       -4.1235    1.6905   -1.0216 H         1 ACP         0.1084
     36 H5'1       -1.4802    1.9929    0.8148 H         1 ACP         0.0281
     37 H5'2       -0.1370    3.1043    1.1873 H         1 ACP         0.0281
     38 H4'         0.0403    1.7078    3.4343 H         1 ACP         0.1082
     39 H3'         1.5906    1.4859    1.1353 H         1 ACP         0.0650
     40 HO3'        2.6839   -0.1150    2.2479 H         1 ACP         0.4300
     41 H2'        -0.0017    0.0018    0.0005 H         1 ACP         0.0785
     42 HO2'        2.0953   -0.9375    0.0709 H         1 ACP         0.4275
     43 H1'        -0.1998   -1.6319    2.6178 H         1 ACP         0.1009
     44 H8         -2.4576   -0.0639   -0.0831 H         1 ACP         0.1067
     45 HN61       -5.2371   -3.9234   -0.8448 H         1 ACP         0.4213
     46 HN62       -5.2909   -5.5485   -0.2160 H         1 ACP         0.4213
     47 H2         -1.8433   -5.7650    2.8259 H         1 ACP         0.0365
@<TRIPOS>BOND
     1    1    2 2
     2    1    3 1
     3    1    4 1
     4    1    8 1
     5    3   32 1
     6    4   33 1
     7    5    6 2
     8    5    7 1
     9    5    8 1
    10    5   12 1
    11    8   34 1
    12    8   35 1
    13    9   10 2
    14    9   11 1
    15    9   12 1
    16    9   13 1
    17   13   14 1
    18   14   15 1
    19   14   36 1
    20   14   37 1
    21   15   16 1
    22   15   17 1
    23   15   38 1
    24   16   21 1
    25   17   18 1
    26   17   19 1
    27   17   39 1
    28   18   40 1
    29   19   20 1
    30   19   21 1
    31   19   41 1
    32   20   42 1
    33   21   22 1
    34   21   43 1
    35   22   23 ar
    36   22   31 ar
    37   23   24 ar
    38   23   44 1
    39   24   25 ar
    40   25   26 ar
    41   25   31 ar
    42   26   27 1
    43   26   28 ar
    44   27   45 1
    45   27   46 1
    46   28   29 ar
    47   29   30 ar
    48   29   47 1
    49   30   31 ar
@<TRIPOS>SUBSTRUCTURE
     1 ACP         1 GROUP 0 A     ****
@<TRIPOS>MOLECULE
[[5-(6-aminopurin-9-yl)-3,4-dihydroxy-tetrahydrofuran-2-yl]methoxy-oxido-phosphoryl]oxy-(phosphonomethyl)phosphinate
   47    49     1     0     0
SMALL
USER_CHARGES

@<TRIPOS>ATOM
      1 PG          0.7183    5.7632    5.7637 P.3       1 ACP         1.6478
      2 O1G         0.3354    4.3138    5.7580 O.2       1 ACP        -0.9103
      3 O2G         2.2669    6.0705    6.1066 O.3       1 ACP        -0.7989
      4 O3G        -0.0930    6.6899    6.8090 O.3       1 ACP        -0.7989
      5 PB         -1.1852    6.7465    3.3680 P.3       1 ACP         1.4947
      6 O1B        -0.9854    7.5130    2.0811 O.co2     1 ACP        -0.8554
      7 O2B        -2.1739    7.1848    4.4234 O.co2     1 ACP        -0.8554
      8 C3B         0.4680    6.6068    4.1854 C.3       1 ACP        -0.6550
      9 PA         -2.5401    4.4095    2.1396 P.3       1 ACP         1.5921
     10 O1A        -2.3764    4.8319    0.6956 O.co2     1 ACP        -0.8561
     11 O2A        -3.8732    4.5590    2.8399 O.co2     1 ACP        -0.8561
     12 O3A        -1.4003    5.1652    3.0325 O.3       1 ACP        -0.8166
     13 O5'        -2.0402    2.8619    2.3132 O.3       1 ACP        -0.5737
     14 C5'        -0.8811    2.4285    1.6206 C.3       1 ACP         0.2197
     15 C4'        -0.1994    1.3333    2.4288 C.3       1 ACP         0.0944
     16 O4'        -1.1285    0.2356    2.5840 O.3       1 ACP        -0.4017
     17 C3'         1.0324    0.7610    1.7344 C.3       1 ACP         0.0859
     18 O3'         1.9175    0.2377    2.7247 O.3       1 ACP        -0.5941
     19 C2'         0.4468   -0.3802    0.9263 C.3       1 ACP         0.0924
     20 O2'         1.3993   -1.3703    0.5961 O.3       1 ACP        -0.5928
     21 C1'        -0.6159   -0.9100    1.8769 C.3       1 ACP         0.3967
     22 N9         -1.7127   -1.6108    1.2130 N.pl3     1 ACP        -0.6763
     23 C8         -2.8641   -1.0399    0.7392 C.ar      1 ACP         0.5586
     24 N7         -3.6659   -1.9257    0.1858 N.2       1 ACP        -0.5795
     25 C5         -3.0053   -3.1223    0.3069 C.ar      1 ACP        -0.2116
     26 C6         -3.3321   -4.4178   -0.0813 C.ar      1 ACP         0.7185
     27 N6         -4.5476   -4.6866   -0.7335 N.pl3     1 ACP        -0.9442
     28 N1         -2.4608   -5.4225    0.1773 N.ar      1 ACP        -0.8040
     29 C2         -1.3053   -5.1020    0.8081 C.ar      1 ACP         0.6560
     30 N3         -0.8788   -3.8921    1.2315 N.ar      1 ACP        -0.7058
     31 C4         -1.7870   -2.9477    0.9438 C.ar      1 ACP         0.5729
     32 HOG2        2.6283    5.7820    6.9715 H         1 ACP         0.4440
     33 HOG3       -0.0424    6.4827    7.7664 H         1 ACP         0.4440
     34 H3B1        0.8278    7.6356    4.2992 H         1 ACP         0.1084
     35 H3B2        1.1227    6.1185    3.4545 H         1 ACP         0.1084
     36 H5'1       -1.1771    2.0504    0.6370 H         1 ACP         0.0281
     37 H5'2       -0.2083    3.2816    1.4878 H         1 ACP         0.0281
     38 H4'         0.0403    1.7078    3.4343 H         1 ACP         0.1082
     39 H3'         1.5906    1.4859    1.1353 H         1 ACP         0.0650
     40 HO3'        2.6839   -0.1150    2.2479 H         1 ACP         0.4300
     41 H2'        -0.0017    0.0018    0.0005 H         1 ACP         0.0785
     42 HO2'        2.0953   -0.9375    0.0709 H         1 ACP         0.4275
     43 H1'        -0.1998   -1.6319    2.6178 H         1 ACP         0.1009
     44 H8         -3.0609    0.0200    0.8250 H         1 ACP         0.1067
     45 HN61       -5.2046   -3.9433   -0.8775 H         1 ACP         0.4213
     46 HN62       -4.7849   -5.6332   -0.9625 H         1 ACP         0.4213
     47 H2         -0.6318   -5.9307    0.9993 H         1 ACP         0.0365
@<TRIPOS>BOND
     1    1    2 2
     2    1    3 1
     3    1    4 1
     4    1    8 1
     5    3   32 1
     6    4   33 1
     7    5    6 2
     8    5    7 1
     9    5    8 1
    10    5   12 1
    11    8   34 1
    12    8   35 1
    13    9   10 2
    14    9   11 1
    15    9   12 1
    16    9   13 1
    17   13   14 1
    18   14   15 1
    19   14   36 1
    20   14   37 1
    21   15   16 1
    22   15   17 1
    23   15   38 1
    24   16   21 1
    25   17   18 1
    26   17   19 1
    27   17   39 1
    28   18   40 1
    29   19   20 1
    30   19   21 1
    31   19   41 1
    32   20   42 1
    33   21   22 1
    34   21   43 1
    35   22   23 ar
    36   22   31 ar
    37   23   24 ar
    38   23   44 1
    39   24   25 ar
    40   25   26 ar
    41   25   31 ar
    42   26   27 1
    43   26   28 ar
    44   27   45 1
    45   27   46 1
    46   28   29 ar
    47   29   30 ar
    48   29   47 1
    49   30   31 ar
@<TRIPOS>SUBSTRUCTURE
     1 ACP         1 GROUP 0 A     ****
@<TRIPOS>MOLECULE
[[5-(6-aminopurin-9-yl)-3,4-dihydroxy-tetrahydrofuran-2-yl]methoxy-oxido-phosphoryl]oxy-(phosphonomethyl)phosphinate
   47    49     1     0     0
SMALL
USER_CHARGES

@<TRIPOS>ATOM
      1 PG          0.7328    7.4895    1.5011 P.3       1 ACP         1.6478
      2 O1G         0.5094    6.7338    0.2258 O.2       1 ACP        -0.9103
      3 O2G         1.0754    9.0587    1.3269 O.3       1 ACP        -0.7989
      4 O3G         1.9341    6.9397    2.4308 O.3       1 ACP        -0.7989
      5 PB         -1.4223    5.9530    3.3244 P.3       1 ACP         1.4947
      6 O1B        -2.5773    6.3691    4.2056 O.co2     1 ACP        -0.8554
      7 O2B        -0.2831    5.1017    3.8354 O.co2     1 ACP        -0.8554
      8 C3B        -0.6848    7.4968    2.6217 C.3       1 ACP        -0.6550
      9 PA         -2.9648    4.0418    1.6589 P.3       1 ACP         1.5921
     10 O1A        -3.0690    3.8284    0.1642 O.co2     1 ACP        -0.8561
     11 O2A        -4.2106    4.1925    2.5047 O.co2     1 ACP        -0.8561
     12 O3A        -1.9968    5.3287    1.9318 O.3       1 ACP        -0.8166
     13 O5'        -2.0402    2.8619    2.3132 O.3       1 ACP        -0.5737
     14 C5'        -0.8811    2.4285    1.6206 C.3       1 ACP         0.2197
     15 C4'        -0.1994    1.3333    2.4288 C.3       1 ACP         0.0944
     16 O4'        -1.1285    0.2356    2.5840 O.3       1 ACP        -0.4017
     17 C3'         1.0324    0.7610    1.7344 C.3       1 ACP         0.0859
     18 O3'         1.9175    0.2377    2.7247 O.3       1 ACP        -0.5941
     19 C2'         0.4468   -0.3802    0.9263 C.3       1 ACP         0.0924
     20 O2'         1.3993   -1.3703    0.5961 O.3       1 ACP        -0.5928
     21 C1'        -0.6159   -0.9100    1.8769 C.3       1 ACP         0.3967
     22 N9         -1.7127   -1.6108    1.2130 N.pl3     1 ACP        -0.6763
     23 C8         -2.5476   -1.0844    0.2632 C.ar      1 ACP         0.5586
     24 N7         -3.4391   -1.9591   -0.1536 N.2       1 ACP        -0.5795
     25 C5         -3.1701   -3.1016    0.5574 C.ar      1 ACP        -0.2116
     26 C6         -3.7593   -4.3620    0.5656 C.ar      1 ACP         0.7185
     27 N6         -4.8512   -4.6493   -0.2712 N.pl3     1 ACP        -0.9442
     28 N1         -3.2659   -5.3144    1.3932 N.ar      1 ACP        -0.8040
     29 C2         -2.2122   -4.9785    2.1759 C.ar      1 ACP         0.6560
     30 N3         -1.5595   -3.7985    2.2572 N.ar      1 ACP        -0.7058
     31 C4         -2.0986   -2.9054    1.4140 C.ar      1 ACP         0.5729
     32 HOG2        1.8733    9.3172    0.8184 H         1 ACP         0.4440
     33 HOG3        2.8449    6.9190    2.0675 H         1 ACP         0.4440
     34 H3B1       -0.4204    8.1164    3.4860 H         1 ACP         0.1084
     35 H3B2       -1.5020    8.0081    2.1002 H         1 ACP         0.1084
     36 H5'1       -1.1771    2.0504    0.6370 H         1 ACP         0.0281
     37 H5'2       -0.2083    3.2816    1.4878 H         1 ACP         0.0281
     38 H4'         0.0403    1.7078    3.4343 H         1 ACP         0.1082
     39 H3'         1.5906    1.4859    1.1353 H         1 ACP         0.0650
     40 HO3'        2.6839   -0.1150    2.2479 H         1 ACP         0.4300
     41 H2'        -0.0017    0.0018    0.0005 H         1 ACP         0.0785
     42 HO2'        2.0953   -0.9375    0.0709 H         1 ACP         0.4275
     43 H1'        -0.1998   -1.6319    2.6178 H         1 ACP         0.1009
     44 H8         -2.4576   -0.0639   -0.0831 H         1 ACP         0.1067
     45 HN61       -5.2371   -3.9234   -0.8448 H         1 ACP         0.4213
     46 HN62       -5.2909   -5.5485   -0.2160 H         1 ACP         0.4213
     47 H2         -1.8433   -5.7650    2.8259 H         1 ACP         0.0365
@<TRIPOS>BOND
     1    1    2 2
     2    1    3 1
     3    1    4 1
     4    1    8 1
     5    3   32 1
     6    4   33 1
     7    5    6 2
     8    5    7 1
     9    5    8 1
    10    5   12 1
    11    8   34 1
    12    8   35 1
    13    9   10 2
    14    9   11 1
    15    9   12 1
    16    9   13 1
    17   13   14 1
    18   14   15 1
    19   14   36 1
    20   14   37 1
    21   15   16 1
    22   15   17 1
    23   15   38 1
    24   16   21 1
    25   17   18 1
    26   17   19 1
    27   17   39 1
    28   18   40 1
    29   19   20 1
    30   19   21 1
    31   19   41 1
    32   20   42 1
    33   21   22 1
    34   21   43 1
    35   22   23 ar
    36   22   31 ar
    37   23   24 ar
    38   23   44 1
    39   24   25 ar
    40   25   26 ar
    41   25   31 ar
    42   26   27 1
    43   26   28 ar
    44   27   45 1
    45   27   46 1
    46   28   29 ar
    47   29   30 ar
    48   29   47 1
    49   30   31 ar
@<TRIPOS>SUBSTRUCTURE
     1 ACP         1 GROUP 0 A     ****
@<TRIPOS>MOLECULE
[[5-(6-aminopurin-9-yl)-3,4-dihydroxy-tetrahydrofuran-2-yl]methoxy-oxido-phosphoryl]oxy-(phosphonomethyl)phosphinate
   47    49     1     0     0
SMALL
USER_CHARGES

@<TRIPOS>ATOM
      1 PG         -4.9631    2.9991   -1.7635 P.3       1 ACP         1.6478
      2 O1G        -4.4080    1.9436   -0.8552 O.2       1 ACP        -0.9103
      3 O2G        -6.4252    3.5589   -1.3647 O.3       1 ACP        -0.7989
      4 O3G        -5.1322    2.5636   -3.3099 O.3       1 ACP        -0.7989
      5 PB         -3.5712    5.5536   -0.3969 P.3       1 ACP         1.4947
      6 O1B        -4.8870    6.0381    0.1667 O.co2     1 ACP        -0.8554
      7 O2B        -2.4686    6.5035   -0.8035 O.co2     1 ACP        -0.8554
      8 C3B        -3.9592    4.4982   -1.8654 C.3       1 ACP        -0.6550
      9 PA         -2.5401    4.4095    2.1396 P.3       1 ACP         1.5921
     10 O1A        -3.7865    4.6313    2.9690 O.co2     1 ACP        -0.8561
     11 O2A        -1.3389    5.3166    2.2956 O.co2     1 ACP        -0.8561
     12 O3A        -2.9654    4.3827    0.5629 O.3       1 ACP        -0.8166
     13 O5'        -2.0402    2.8619    2.3132 O.3       1 ACP        -0.5737
     14 C5'        -0.8811    2.4285    1.6206 C.3       1 ACP         0.2197
     15 C4'        -0.1994    1.3333    2.4288 C.3       1 ACP         0.0944
     16 O4'        -1.1285    0.2356    2.5840 O.3       1 ACP        -0.4017
     17 C3'         1.0324    0.7610    1.7344 C.3       1 ACP         0.0859
     18 O3'         1.9175    0.2377    2.7247 O.3       1 ACP        -0.5941
     19 C2'         0.4468   -0.3802    0.9263 C.3       1 ACP         0.0924
     20 O2'         1.3993   -1.3703    0.5961 O.3       1 ACP        -0.5928
     21 C1'        -0.6159   -0.9100    1.8769 C.3       1 ACP         0.3967
     22 N9         -1.7127   -1.6108    1.2130 N.pl3     1 ACP        -0.6763
     23 C8         -2.8641   -1.0399    0.7392 C.ar      1 ACP         0.5586
     24 N7         -3.6659   -1.9257    0.1858 N.2       1 ACP        -0.5795
     25 C5         -3.0053   -3.1223    0.3069 C.ar      1 ACP        -0.2116
     26 C6         -3.3321   -4.4178   -0.0813 C.ar      1 ACP         0.7185
     27 N6         -4.5476   -4.6866   -0.7335 N.pl3     1 ACP        -0.9442
     28 N1         -2.4608   -5.4225    0.1773 N.ar      1 ACP        -0.8040
     29 C2         -1.3053   -5.1020    0.8081 C.ar      1 ACP         0.6560
     30 N3         -0.8788   -3.8921    1.2315 N.ar      1 ACP        -0.7058
     31 C4         -1.7870   -2.9477    0.9438 C.ar      1 ACP         0.5729
     32 HOG2       -7.1797    2.9332   -1.3281 H         1 ACP         0.4440
     33 HOG3       -5.7163    1.8068   -3.5292 H         1 ACP         0.4440
     34 H3B1       -2.9890    4.2185   -2.2913 H         1 ACP         0.1084
     35 H3B2       -4.4467    5.1609   -2.5896 H         1 ACP         0.1084
     36 H5'1       -1.1771    2.0504    0.6370 H         1 ACP         0.0281
     37 H5'2       -0.2083    3.2816    1.4878 H         1 ACP         0.0281
     38 H4'         0.0403    1.7078    3.4343 H         1 ACP         0.1082
     39 H3'         1.5906    1.4859    1.1353 H         1 ACP         0.0650
     40 HO3'        2.6839   -0.1150    2.2479 H         1 ACP         0.4300
     41 H2'        -0.0017    0.0018    0.0005 H         1 ACP         0.0785
     42 HO2'        2.0953   -0.9375    0.0709 H         1 ACP         0.4275
     43 H1'        -0.1998   -1.6319    2.6178 H         1 ACP         0.1009
     44 H8         -3.0609    0.0200    0.8250 H         1 ACP         0.1067
     45 HN61       -5.2046   -3.9433   -0.8775 H         1 ACP         0.4213
     46 HN62       -4.7849   -5.6332   -0.9625 H         1 ACP         0.4213
     47 H2         -0.6318   -5.9307    0.9993 H         1 ACP         0.0365
@<TRIPOS>BOND
     1    1    2 2
     2    1    3 1
     3    1    4 1
     4    1    8 1
     5    3   32 1
     6    4   33 1
     7    5    6 2
     8    5    7 1
     9    5    8 1
    10    5   12 1
    11    8   34 1
    12    8   35 1
    13    9   10 2
    14    9   11 1
    15    9   12 1
    16    9   13 1
    17   13   14 1
    18   14   15 1
    19   14   36 1
    20   14   37 1
    21   15   16 1
    22   15   17 1
    23   15   38 1
    24   16   21 1
    25   17   18 1
    26   17   19 1
    27   17   39 1
    28   18   40 1
    29   19   20 1
    30   19   21 1
    31   19   41 1
    32   20   42 1
    33   21   22 1
    34   21   43 1
    35   22   23 ar
    36   22   31 ar
    37   23   24 ar
    38   23   44 1
    39   24   25 ar
    40   25   26 ar
    41   25   31 ar
    42   26   27 1
    43   26   28 ar
    44   27   45 1
    45   27   46 1
    46   28   29 ar
    47   29   30 ar
    48   29   47 1
    49   30   31 ar
@<TRIPOS>SUBSTRUCTURE
     1 ACP         1 GROUP 0 A     ****
@<TRIPOS>MOLECULE
[[5-(6-aminopurin-9-yl)-3,4-dihydroxy-tetrahydrofuran-2-yl]methoxy-oxido-phosphoryl]oxy-(phosphonomethyl)phosphinate
   47    49     1     0     0
SMALL
USER_CHARGES

@<TRIPOS>ATOM
      1 PG          2.0407    5.4116    3.6685 P.3       1 ACP         1.6478
      2 O1G         3.2151    6.3383    3.7645 O.2       1 ACP        -0.9103
      3 O2G         2.2827    3.9223    4.2462 O.3       1 ACP        -0.7989
      4 O3G         1.4823    5.1531    2.1748 O.3       1 ACP        -0.7989
      5 PB         -1.0071    5.0129    4.6078 P.3       1 ACP         1.4947
      6 O1B        -1.9844    5.7993    5.4505 O.co2     1 ACP        -0.8554
      7 O2B        -0.6549    3.5749    4.9106 O.co2     1 ACP        -0.8554
      8 C3B         0.5746    5.9706    4.5650 C.3       1 ACP        -0.6550
      9 PA         -2.5401    4.4095    2.1396 P.3       1 ACP         1.5921
     10 O1A        -2.3764    4.8319    0.6956 O.co2     1 ACP        -0.8561
     11 O2A        -3.8732    4.5590    2.8399 O.co2     1 ACP        -0.8561
     12 O3A        -1.4003    5.1652    3.0325 O.3       1 ACP        -0.8166
     13 O5'        -2.0402    2.8619    2.3132 O.3       1 ACP        -0.5737
     14 C5'        -0.8811    2.4285    1.6206 C.3       1 ACP         0.2197
     15 C4'        -0.1994    1.3333    2.4288 C.3       1 ACP         0.0944
     16 O4'        -1.1285    0.2356    2.5840 O.3       1 ACP        -0.4017
     17 C3'         1.0324    0.7610    1.7344 C.3       1 ACP         0.0859
     18 O3'         1.9175    0.2377    2.7247 O.3       1 ACP        -0.5941
     19 C2'         0.4468   -0.3802    0.9263 C.3       1 ACP         0.0924
     20 O2'         1.3993   -1.3703    0.5961 O.3       1 ACP        -0.5928
     21 C1'        -0.6159   -0.9100    1.8769 C.3       1 ACP         0.3967
     22 N9         -1.7127   -1.6108    1.2130 N.pl3     1 ACP        -0.6763
     23 C8         -1.7712   -2.9546    0.9544 C.ar      1 ACP         0.5586
     24 N7         -2.8883   -3.2948    0.3462 N.2       1 ACP        -0.5795
     25 C5         -3.5834   -2.1202    0.2043 C.ar      1 ACP        -0.2116
     26 C6         -4.8225   -1.8251   -0.3554 C.ar      1 ACP         0.7185
     27 N6         -5.6154   -2.8394   -0.9189 N.pl3     1 ACP        -0.9442
     28 N1         -5.2589   -0.5425   -0.3507 N.ar      1 ACP        -0.8040
     29 C2         -4.4510    0.3913    0.2069 C.ar      1 ACP         0.6560
     30 N3         -3.2368    0.2296    0.7767 N.ar      1 ACP        -0.7058
     31 C4         -2.8684   -1.0596    0.7376 C.ar      1 ACP         0.5729
     32 HOG2        2.9871    3.3673    3.8490 H         1 ACP         0.4440
     33 HOG3        2.0814    4.7603    1.5049 H         1 ACP         0.4440
     34 H3B1        0.8615    6.1118    5.6132 H         1 ACP         0.1084
     35 H3B2        0.3152    6.9591    4.1690 H         1 ACP         0.1084
     36 H5'1       -1.1771    2.0504    0.6370 H         1 ACP         0.0281
     37 H5'2       -0.2083    3.2816    1.4878 H         1 ACP         0.0281
     38 H4'         0.0403    1.7078    3.4343 H         1 ACP         0.1082
     39 H3'         1.5906    1.4859    1.1353 H         1 ACP         0.0650
     40 HO3'        2.6839   -0.1150    2.2479 H         1 ACP         0.4300
     41 H2'        -0.0017    0.0018    0.0005 H         1 ACP         0.0785
     42 HO2'        2.0953   -0.9375    0.0709 H         1 ACP         0.4275
     43 H1'        -0.1998   -1.6319    2.6178 H         1 ACP         0.1009
     44 H8         -0.9745   -3.6312    1.2318 H         1 ACP         0.1067
     45 HN61       -5.2619   -3.7766   -0.9586 H         1 ACP         0.4213
     46 HN62       -6.4834   -2.5990   -1.3590 H         1 ACP         0.4213
     47 H2         -4.8317    1.4071    0.1930 H         1 ACP         0.0365
@<TRIPOS>BOND
     1    1    2 2
     2    1    3 1
     3    1    4 1
     4    1    8 1
     5    3   32 1
     6    4   33 1
     7    5    6 2
     8    5    7 1
     9    5    8 1
    10    5   12 1
    11    8   34 1
    12    8   35 1
    13    9   10 2
    14    9   11 1
    15    9   12 1
    16    9   13 1
    17   13   14 1
    18   14   15 1
    19   14   36 1
    20   14   37 1
    21   15   16 1
    22   15   17 1
    23   15   38 1
    24   16   21 1
    25   17   18 1
    26   17   19 1
    27   17   39 1
    28   18   40 1
    29   19   20 1
    30   19   21 1
    31   19   41 1
    32   20   42 1
    33   21   22 1
    34   21   43 1
    35   22   23 ar
    36   22   31 ar
    37   23   24 ar
    38   23   44 1
    39   24   25 ar
    40   25   26 ar
    41   25   31 ar
    42   26   27 1
    43   26   28 ar
    44   27   45 1
    45   27   46 1
    46   28   29 ar
    47   29   30 ar
    48   29   47 1
    49   30   31 ar
@<TRIPOS>SUBSTRUCTURE
     1 ACP         1 GROUP 0 A     ****
@<TRIPOS>MOLECULE
[[5-(6-aminopurin-9-yl)-3,4-dihydroxy-tetrahydrofuran-2-yl]methoxy-oxido-phosphoryl]oxy-(phosphonomethyl)phosphinate
   47    49     1     0     0
SMALL
USER_CHARGES

@<TRIPOS>ATOM
      1 PG          1.6819    3.2045   -3.5077 P.3       1 ACP         1.6478
      2 O1G         2.0251    2.0939   -4.4543 O.2       1 ACP        -0.9103
      3 O2G         2.3568    4.6340   -3.8409 O.3       1 ACP        -0.7989
      4 O3G         2.0812    2.9470   -1.9637 O.3       1 ACP        -0.7989
      5 PB         -0.7695    4.9159   -2.3280 P.3       1 ACP         1.4947
      6 O1B        -2.2668    4.9313   -2.5316 O.co2     1 ACP        -0.8554
      7 O2B         0.0843    6.1473   -2.5230 O.co2     1 ACP        -0.8554
      8 C3B        -0.0814    3.5896   -3.4181 C.3       1 ACP        -0.6550
      9 PA         -0.4662    4.8323    0.6228 P.3       1 ACP         1.5921
     10 O1A        -1.9048    5.1484    0.9710 O.co2     1 ACP        -0.8561
     11 O2A         0.6070    5.8922    0.7447 O.co2     1 ACP        -0.8561
     12 O3A        -0.4219    4.2246   -0.8925 O.3       1 ACP        -0.8166
     13 O5'         0.0182    3.5132    1.4596 O.3       1 ACP        -0.5737
     14 C5'        -0.8811    2.4285    1.6206 C.3       1 ACP         0.2197
     15 C4'        -0.1994    1.3333    2.4288 C.3       1 ACP         0.0944
     16 O4'        -1.1285    0.2356    2.5840 O.3       1 ACP        -0.4017
     17 C3'         1.0324    0.7610    1.7344 C.3       1 ACP         0.0859
     18 O3'         1.9175    0.2377    2.7247 O.3       1 ACP        -0.5941
     19 C2'         0.4468   -0.3802    0.9263 C.3       1 ACP         0.0924
     20 O2'         1.3993   -1.3703    0.5961 O.3       1 ACP        -0.5928
     21 C1'        -0.6159   -0.9100    1.8769 C.3       1 ACP         0.3967
     22 N9         -1.7127   -1.6108    1.2130 N.pl3     1 ACP        -0.6763
     23 C8         -2.8641   -1.0399    0.7392 C.ar      1 ACP         0.5586
     24 N7         -3.6659   -1.9257    0.1858 N.2       1 ACP        -0.5795
     25 C5         -3.0053   -3.1223    0.3069 C.ar      1 ACP        -0.2116
     26 C6         -3.3321   -4.4178   -0.0813 C.ar      1 ACP         0.7185
     27 N6         -4.5476   -4.6866   -0.7335 N.pl3     1 ACP        -0.9442
     28 N1         -2.4608   -5.4225    0.1773 N.ar      1 ACP        -0.8040
     29 C2         -1.3053   -5.1020    0.8081 C.ar      1 ACP         0.6560
     30 N3         -0.8788   -3.8921    1.2315 N.ar      1 ACP        -0.7058
     31 C4         -1.7870   -2.9477    0.9438 C.ar      1 ACP         0.5729
     32 HOG2        3.3350    4.7047   -3.8597 H         1 ACP         0.4440
     33 HOG3        3.0230    2.7955   -1.7354 H         1 ACP         0.4440
     34 H3B1       -0.4179    3.8374   -4.4311 H         1 ACP         0.1084
     35 H3B2       -0.5960    2.6666   -3.1274 H         1 ACP         0.1084
     36 H5'1       -1.7769    2.7852    2.1386 H         1 ACP         0.0281
     37 H5'2       -1.1652    2.0544    0.6320 H         1 ACP         0.0281
     38 H4'         0.0403    1.7078    3.4343 H         1 ACP         0.1082
     39 H3'         1.5906    1.4859    1.1353 H         1 ACP         0.0650
     40 HO3'        2.1521    0.9800    3.3017 H         1 ACP         0.4300
     41 H2'        -0.0017    0.0018    0.0005 H         1 ACP         0.0785
     42 HO2'        0.9369   -2.0558    0.0825 H         1 ACP         0.4275
     43 H1'        -0.1998   -1.6319    2.6178 H         1 ACP         0.1009
     44 H8         -3.0609    0.0200    0.8250 H         1 ACP         0.1067
     45 HN61       -5.2046   -3.9433   -0.8775 H         1 ACP         0.4213
     46 HN62       -4.7849   -5.6332   -0.9625 H         1 ACP         0.4213
     47 H2         -0.6318   -5.9307    0.9993 H         1 ACP         0.0365
@<TRIPOS>BOND
     1    1    2 2
     2    1    3 1
     3    1    4 1
     4    1    8 1
     5    3   32 1
     6    4   33 1
     7    5    6 2
     8    5    7 1
     9    5    8 1
    10    5   12 1
    11    8   34 1
    12    8   35 1
    13    9   10 2
    14    9   11 1
    15    9   12 1
    16    9   13 1
    17   13   14 1
    18   14   15 1
    19   14   36 1
    20   14   37 1
    21   15   16 1
    22   15   17 1
    23   15   38 1
    24   16   21 1
    25   17   18 1
    26   17   19 1
    27   17   39 1
    28   18   40 1
    29   19   20 1
    30   19   21 1
    31   19   41 1
    32   20   42 1
    33   21   22 1
    34   21   43 1
    35   22   23 ar
    36   22   31 ar
    37   23   24 ar
    38   23   44 1
    39   24   25 ar
    40   25   26 ar
    41   25   31 ar
    42   26   27 1
    43   26   28 ar
    44   27   45 1
    45   27   46 1
    46   28   29 ar
    47   29   30 ar
    48   29   47 1
    49   30   31 ar
@<TRIPOS>SUBSTRUCTURE
     1 ACP         1 GROUP 0 A     ****
@<TRIPOS>MOLECULE
[[5-(6-aminopurin-9-yl)-3,4-dihydroxy-tetrahydrofuran-2-yl]methoxy-oxido-phosphoryl]oxy-(phosphonomethyl)phosphinate
   47    49     1     0     0
SMALL
USER_CHARGES

@<TRIPOS>ATOM
      1 PG          0.7183    5.7632    5.7637 P.3       1 ACP         1.6478
      2 O1G         0.3354    4.3138    5.7580 O.2       1 ACP        -0.9103
      3 O2G         2.2669    6.0705    6.1066 O.3       1 ACP        -0.7989
      4 O3G        -0.0930    6.6899    6.8090 O.3       1 ACP        -0.7989
      5 PB         -1.1852    6.7465    3.3680 P.3       1 ACP         1.4947
      6 O1B        -0.9854    7.5130    2.0811 O.co2     1 ACP        -0.8554
      7 O2B        -2.1739    7.1848    4.4234 O.co2     1 ACP        -0.8554
      8 C3B         0.4680    6.6068    4.1854 C.3       1 ACP        -0.6550
      9 PA         -2.5401    4.4095    2.1396 P.3       1 ACP         1.5921
     10 O1A        -2.3764    4.8319    0.6956 O.co2     1 ACP        -0.8561
     11 O2A        -3.8732    4.5590    2.8399 O.co2     1 ACP        -0.8561
     12 O3A        -1.4003    5.1652    3.0325 O.3       1 ACP        -0.8166
     13 O5'        -2.0402    2.8619    2.3132 O.3       1 ACP        -0.5737
     14 C5'        -0.8811    2.4285    1.6206 C.3       1 ACP         0.2197
     15 C4'        -0.1994    1.3333    2.4288 C.3       1 ACP         0.0944
     16 O4'        -1.1285    0.2356    2.5840 O.3       1 ACP        -0.4017
     17 C3'         1.0324    0.7610    1.7344 C.3       1 ACP         0.0859
     18 O3'         1.9175    0.2377    2.7247 O.3       1 ACP        -0.5941
     19 C2'         0.4468   -0.3802    0.9263 C.3       1 ACP         0.0924
     20 O2'         1.3993   -1.3703    0.5961 O.3       1 ACP        -0.5928
     21 C1'        -0.6159   -0.9100    1.8769 C.3       1 ACP         0.3967
     22 N9         -1.7127   -1.6108    1.2130 N.pl3     1 ACP        -0.6763
     23 C8         -1.7712   -2.9546    0.9544 C.ar      1 ACP         0.5586
     24 N7         -2.8883   -3.2948    0.3462 N.2       1 ACP        -0.5795
     25 C5         -3.5834   -2.1202    0.2043 C.ar      1 ACP        -0.2116
     26 C6         -4.8225   -1.8251   -0.3554 C.ar      1 ACP         0.7185
     27 N6         -5.6154   -2.8394   -0.9189 N.pl3     1 ACP        -0.9442
     28 N1         -5.2589   -0.5425   -0.3507 N.ar      1 ACP        -0.8040
     29 C2         -4.4510    0.3913    0.2069 C.ar      1 ACP         0.6560
     30 N3         -3.2368    0.2296    0.7767 N.ar      1 ACP        -0.7058
     31 C4         -2.8684   -1.0596    0.7376 C.ar      1 ACP         0.5729
     32 HOG2        2.6283    5.7820    6.9715 H         1 ACP         0.4440
     33 HOG3       -0.0424    6.4827    7.7664 H         1 ACP         0.4440
     34 H3B1        0.8278    7.6356    4.2992 H         1 ACP         0.1084
     35 H3B2        1.1227    6.1185    3.4545 H         1 ACP         0.1084
     36 H5'1       -1.1771    2.0504    0.6370 H         1 ACP         0.0281
     37 H5'2       -0.2083    3.2816    1.4878 H         1 ACP         0.0281
     38 H4'         0.0403    1.7078    3.4343 H         1 ACP         0.1082
     39 H3'         1.5906    1.4859    1.1353 H         1 ACP         0.0650
     40 HO3'        2.6839   -0.1150    2.2479 H         1 ACP         0.4300
     41 H2'        -0.0017    0.0018    0.0005 H         1 ACP         0.0785
     42 HO2'        2.0953   -0.9375    0.0709 H         1 ACP         0.4275
     43 H1'        -0.1998   -1.6319    2.6178 H         1 ACP         0.1009
     44 H8         -0.9745   -3.6312    1.2318 H         1 ACP         0.1067
     45 HN61       -5.2619   -3.7766   -0.9586 H         1 ACP         0.4213
     46 HN62       -6.4834   -2.5990   -1.3590 H         1 ACP         0.4213
     47 H2         -4.8317    1.4071    0.1930 H         1 ACP         0.0365
@<TRIPOS>BOND
     1    1    2 2
     2    1    3 1
     3    1    4 1
     4    1    8 1
     5    3   32 1
     6    4   33 1
     7    5    6 2
     8    5    7 1
     9    5    8 1
    10    5   12 1
    11    8   34 1
    12    8   35 1
    13    9   10 2
    14    9   11 1
    15    9   12 1
    16    9   13 1
    17   13   14 1
    18   14   15 1
    19   14   36 1
    20   14   37 1
    21   15   16 1
    22   15   17 1
    23   15   38 1
    24   16   21 1
    25   17   18 1
    26   17   19 1
    27   17   39 1
    28   18   40 1
    29   19   20 1
    30   19   21 1
    31   19   41 1
    32   20   42 1
    33   21   22 1
    34   21   43 1
    35   22   23 ar
    36   22   31 ar
    37   23   24 ar
    38   23   44 1
    39   24   25 ar
    40   25   26 ar
    41   25   31 ar
    42   26   27 1
    43   26   28 ar
    44   27   45 1
    45   27   46 1
    46   28   29 ar
    47   29   30 ar
    48   29   47 1
    49   30   31 ar
@<TRIPOS>SUBSTRUCTURE
     1 ACP         1 GROUP 0 A     ****
@<TRIPOS>MOLECULE
[[5-(6-aminopurin-9-yl)-3,4-dihydroxy-tetrahydrofuran-2-yl]methoxy-oxido-phosphoryl]oxy-(phosphonomethyl)phosphinate
   47    49     1     0     0
SMALL
USER_CHARGES

@<TRIPOS>ATOM
      1 PG         -2.3324    6.5209    4.7167 P.3       1 ACP         1.6478
      2 O1G        -1.4158    5.3371    4.7920 O.2       1 ACP        -0.9103
      3 O2G        -1.6062    7.9639    4.7450 O.3       1 ACP        -0.7989
      4 O3G        -3.4287    6.6247    5.8986 O.3       1 ACP        -0.7989
      5 PB         -2.6081    6.6806    1.5185 P.3       1 ACP         1.4947
      6 O1B        -1.7739    7.9390    1.4541 O.co2     1 ACP        -0.8554
      7 O2B        -3.7207    6.3985    0.5355 O.co2     1 ACP        -0.8554
      8 C3B        -3.3368    6.5919    3.2162 C.3       1 ACP        -0.6550
      9 PA         -0.4662    4.8323    0.6228 P.3       1 ACP         1.5921
     10 O1A         0.6572    5.8459    0.5874 O.co2     1 ACP        -0.8561
     11 O2A        -1.1249    4.3667   -0.6576 O.co2     1 ACP        -0.8561
     12 O3A        -1.6280    5.3822    1.6306 O.3       1 ACP        -0.8166
     13 O5'         0.0182    3.5132    1.4596 O.3       1 ACP        -0.5737
     14 C5'        -0.8811    2.4285    1.6206 C.3       1 ACP         0.2197
     15 C4'        -0.1994    1.3333    2.4288 C.3       1 ACP         0.0944
     16 O4'        -1.1285    0.2356    2.5840 O.3       1 ACP        -0.4017
     17 C3'         1.0324    0.7610    1.7344 C.3       1 ACP         0.0859
     18 O3'         1.9175    0.2377    2.7247 O.3       1 ACP        -0.5941
     19 C2'         0.4468   -0.3802    0.9263 C.3       1 ACP         0.0924
     20 O2'         1.3993   -1.3703    0.5961 O.3       1 ACP        -0.5928
     21 C1'        -0.6159   -0.9100    1.8769 C.3       1 ACP         0.3967
     22 N9         -1.7127   -1.6108    1.2130 N.pl3     1 ACP        -0.6763
     23 C8         -2.8641   -1.0399    0.7392 C.ar      1 ACP         0.5586
     24 N7         -3.6659   -1.9257    0.1858 N.2       1 ACP        -0.5795
     25 C5         -3.0053   -3.1223    0.3069 C.ar      1 ACP        -0.2116
     26 C6         -3.3321   -4.4178   -0.0813 C.ar      1 ACP         0.7185
     27 N6         -4.5476   -4.6866   -0.7335 N.pl3     1 ACP        -0.9442
     28 N1         -2.4608   -5.4225    0.1773 N.ar      1 ACP        -0.8040
     29 C2         -1.3053   -5.1020    0.8081 C.ar      1 ACP         0.6560
     30 N3         -0.8788   -3.8921    1.2315 N.ar      1 ACP        -0.7058
     31 C4         -1.7870   -2.9477    0.9438 C.ar      1 ACP         0.5729
     32 HOG2       -1.0587    8.2050    5.5223 H         1 ACP         0.4440
     33 HOG3       -3.1211    6.6893    6.8277 H         1 ACP         0.4440
     34 H3B1       -3.9875    5.7102    3.2113 H         1 ACP         0.1084
     35 H3B2       -3.9879    7.4688    3.3083 H         1 ACP         0.1084
     36 H5'1       -1.7769    2.7852    2.1386 H         1 ACP         0.0281
     37 H5'2       -1.1652    2.0544    0.6320 H         1 ACP         0.0281
     38 H4'         0.0403    1.7078    3.4343 H         1 ACP         0.1082
     39 H3'         1.5906    1.4859    1.1353 H         1 ACP         0.0650
     40 HO3'        2.6839   -0.1150    2.2479 H         1 ACP         0.4300
     41 H2'        -0.0017    0.0018    0.0005 H         1 ACP         0.0785
     42 HO2'        2.0953   -0.9375    0.0709 H         1 ACP         0.4275
     43 H1'        -0.1998   -1.6319    2.6178 H         1 ACP         0.1009
     44 H8         -3.0609    0.0200    0.8250 H         1 ACP         0.1067
     45 HN61       -5.2046   -3.9433   -0.8775 H         1 ACP         0.4213
     46 HN62       -4.7849   -5.6332   -0.9625 H         1 ACP         0.4213
     47 H2         -0.6318   -5.9307    0.9993 H         1 ACP         0.0365
@<TRIPOS>BOND
     1    1    2 2
     2    1    3 1
     3    1    4 1
     4    1    8 1
     5    3   32 1
     6    4   33 1
     7    5    6 2
     8    5    7 1
     9    5    8 1
    10    5   12 1
    11    8   34 1
    12    8   35 1
    13    9   10 2
    14    9   11 1
    15    9   12 1
    16    9   13 1
    17   13   14 1
    18   14   15 1
    19   14   36 1
    20   14   37 1
    21   15   16 1
    22   15   17 1
    23   15   38 1
    24   16   21 1
    25   17   18 1
    26   17   19 1
    27   17   39 1
    28   18   40 1
    29   19   20 1
    30   19   21 1
    31   19   41 1
    32   20   42 1
    33   21   22 1
    34   21   43 1
    35   22   23 ar
    36   22   31 ar
    37   23   24 ar
    38   23   44 1
    39   24   25 ar
    40   25   26 ar
    41   25   31 ar
    42   26   27 1
    43   26   28 ar
    44   27   45 1
    45   27   46 1
    46   28   29 ar
    47   29   30 ar
    48   29   47 1
    49   30   31 ar
@<TRIPOS>SUBSTRUCTURE
     1 ACP         1 GROUP 0 A     ****
@<TRIPOS>MOLECULE
[[5-(6-aminopurin-9-yl)-3,4-dihydroxy-tetrahydrofuran-2-yl]methoxy-oxido-phosphoryl]oxy-(phosphonomethyl)phosphinate
   47    49     1     0     0
SMALL
USER_CHARGES

@<TRIPOS>ATOM
      1 PG          0.7328    7.4895    1.5011 P.3       1 ACP         1.6478
      2 O1G         0.5094    6.7338    0.2258 O.2       1 ACP        -0.9103
      3 O2G         1.0754    9.0587    1.3269 O.3       1 ACP        -0.7989
      4 O3G         1.9341    6.9397    2.4308 O.3       1 ACP        -0.7989
      5 PB         -1.4223    5.9530    3.3244 P.3       1 ACP         1.4947
      6 O1B        -2.5773    6.3691    4.2056 O.co2     1 ACP        -0.8554
      7 O2B        -0.2831    5.1017    3.8354 O.co2     1 ACP        -0.8554
      8 C3B        -0.6848    7.4968    2.6217 C.3       1 ACP        -0.6550
      9 PA         -2.9648    4.0418    1.6589 P.3       1 ACP         1.5921
     10 O1A        -3.0690    3.8284    0.1642 O.co2     1 ACP        -0.8561
     11 O2A        -4.2106    4.1925    2.5047 O.co2     1 ACP        -0.8561
     12 O3A        -1.9968    5.3287    1.9318 O.3       1 ACP        -0.8166
     13 O5'        -2.0402    2.8619    2.3132 O.3       1 ACP        -0.5737
     14 C5'        -0.8811    2.4285    1.6206 C.3       1 ACP         0.2197
     15 C4'        -0.1994    1.3333    2.4288 C.3       1 ACP         0.0944
     16 O4'        -1.1285    0.2356    2.5840 O.3       1 ACP        -0.4017
     17 C3'         1.0324    0.7610    1.7344 C.3       1 ACP         0.0859
     18 O3'         1.9175    0.2377    2.7247 O.3       1 ACP        -0.5941
     19 C2'         0.4468   -0.3802    0.9263 C.3       1 ACP         0.0924
     20 O2'         1.3993   -1.3703    0.5961 O.3       1 ACP        -0.5928
     21 C1'        -0.6159   -0.9100    1.8769 C.3       1 ACP         0.3967
     22 N9         -1.7127   -1.6108    1.2130 N.pl3     1 ACP        -0.6763
     23 C8         -2.0877   -2.9101    1.4304 C.ar      1 ACP         0.5586
     24 N7         -3.1152   -3.2613    0.6857 N.2       1 ACP        -0.5795
     25 C5         -3.4186   -2.1409   -0.0462 C.ar      1 ACP        -0.2116
     26 C6         -4.3953   -1.8809   -1.0023 C.ar      1 ACP         0.7185
     27 N6         -5.3118   -2.8767   -1.3812 N.pl3     1 ACP        -0.9442
     28 N1         -4.4538   -0.6507   -1.5667 N.ar      1 ACP        -0.8040
     29 C2         -3.5442    0.2679   -1.1609 C.ar      1 ACP         0.6560
     30 N3         -2.5561    0.1361   -0.2491 N.ar      1 ACP        -0.7058
     31 C4         -2.5568   -1.1019    0.2674 C.ar      1 ACP         0.5729
     32 HOG2        1.8733    9.3172    0.8184 H         1 ACP         0.4440
     33 HOG3        2.8449    6.9190    2.0675 H         1 ACP         0.4440
     34 H3B1       -0.4204    8.1164    3.4860 H         1 ACP         0.1084
     35 H3B2       -1.5020    8.0081    2.1002 H         1 ACP         0.1084
     36 H5'1       -1.1771    2.0504    0.6370 H         1 ACP         0.0281
     37 H5'2       -0.2083    3.2816    1.4878 H         1 ACP         0.0281
     38 H4'         0.0403    1.7078    3.4343 H         1 ACP         0.1082
     39 H3'         1.5906    1.4859    1.1353 H         1 ACP         0.0650
     40 HO3'        2.6839   -0.1150    2.2479 H         1 ACP         0.4300
     41 H2'        -0.0017    0.0018    0.0005 H         1 ACP         0.0785
     42 HO2'        0.9369   -2.0558    0.0825 H         1 ACP         0.4275
     43 H1'        -0.1998   -1.6319    2.6178 H         1 ACP         0.1009
     44 H8         -1.5778   -3.5473    2.1399 H         1 ACP         0.1067
     45 HN61       -5.2294   -3.7965   -0.9914 H         1 ACP         0.4213
     46 HN62       -5.9774   -2.6837   -2.1055 H         1 ACP         0.4213
     47 H2         -3.6201    1.2414   -1.6336 H         1 ACP         0.0365
@<TRIPOS>BOND
     1    1    2 2
     2    1    3 1
     3    1    4 1
     4    1    8 1
     5    3   32 1
     6    4   33 1
     7    5    6 2
     8    5    7 1
     9    5    8 1
    10    5   12 1
    11    8   34 1
    12    8   35 1
    13    9   10 2
    14    9   11 1
    15    9   12 1
    16    9   13 1
    17   13   14 1
    18   14   15 1
    19   14   36 1
    20   14   37 1
    21   15   16 1
    22   15   17 1
    23   15   38 1
    24   16   21 1
    25   17   18 1
    26   17   19 1
    27   17   39 1
    28   18   40 1
    29   19   20 1
    30   19   21 1
    31   19   41 1
    32   20   42 1
    33   21   22 1
    34   21   43 1
    35   22   23 ar
    36   22   31 ar
    37   23   24 ar
    38   23   44 1
    39   24   25 ar
    40   25   26 ar
    41   25   31 ar
    42   26   27 1
    43   26   28 ar
    44   27   45 1
    45   27   46 1
    46   28   29 ar
    47   29   30 ar
    48   29   47 1
    49   30   31 ar
@<TRIPOS>SUBSTRUCTURE
     1 ACP         1 GROUP 0 A     ****
@<TRIPOS>MOLECULE
[[5-(6-aminopurin-9-yl)-3,4-dihydroxy-tetrahydrofuran-2-yl]methoxy-oxido-phosphoryl]oxy-(phosphonomethyl)phosphinate
   47    49     1     0     0
SMALL
USER_CHARGES

@<TRIPOS>ATOM
      1 PG         -2.9930    4.3587    5.7200 P.3       1 ACP         1.6478
      2 O1G        -4.4668    4.4751    5.4712 O.2       1 ACP        -0.9103
      3 O2G        -2.2503    3.1552    4.9389 O.3       1 ACP        -0.7989
      4 O3G        -2.5665    4.1310    7.2613 O.3       1 ACP        -0.7989
      5 PB         -1.9902    6.4636    3.5078 P.3       1 ACP         1.4947
      6 O1B        -1.0936    7.6800    3.5092 O.co2     1 ACP        -0.8554
      7 O2B        -3.4144    6.5112    3.0049 O.co2     1 ACP        -0.8554
      8 C3B        -2.0384    5.8159    5.2396 C.3       1 ACP        -0.6550
      9 PA         -0.5788    5.0300    1.3263 P.3       1 ACP         1.5921
     10 O1A         0.5648    6.0081    1.1646 O.co2     1 ACP        -0.8561
     11 O2A        -1.7187    5.0058    0.3313 O.co2     1 ACP        -0.8561
     12 O3A        -1.2048    5.2086    2.8242 O.3       1 ACP        -0.8166
     13 O5'         0.0182    3.5132    1.4596 O.3       1 ACP        -0.5737
     14 C5'        -0.8811    2.4285    1.6206 C.3       1 ACP         0.2197
     15 C4'        -0.1994    1.3333    2.4288 C.3       1 ACP         0.0944
     16 O4'        -1.1285    0.2356    2.5840 O.3       1 ACP        -0.4017
     17 C3'         1.0324    0.7610    1.7344 C.3       1 ACP         0.0859
     18 O3'         1.9175    0.2377    2.7247 O.3       1 ACP        -0.5941
     19 C2'         0.4468   -0.3802    0.9263 C.3       1 ACP         0.0924
     20 O2'         1.3993   -1.3703    0.5961 O.3       1 ACP        -0.5928
     21 C1'        -0.6159   -0.9100    1.8769 C.3       1 ACP         0.3967
     22 N9         -1.7127   -1.6108    1.2130 N.pl3     1 ACP        -0.6763
     23 C8         -2.8641   -1.0399    0.7392 C.ar      1 ACP         0.5586
     24 N7         -3.6659   -1.9257    0.1858 N.2       1 ACP        -0.5795
     25 C5         -3.0053   -3.1223    0.3069 C.ar      1 ACP        -0.2116
     26 C6         -3.3321   -4.4178   -0.0813 C.ar      1 ACP         0.7185
     27 N6         -4.5476   -4.6866   -0.7335 N.pl3     1 ACP        -0.9442
     28 N1         -2.4608   -5.4225    0.1773 N.ar      1 ACP        -0.8040
     29 C2         -1.3053   -5.1020    0.8081 C.ar      1 ACP         0.6560
     30 N3         -0.8788   -3.8921    1.2315 N.ar      1 ACP        -0.7058
     31 C4         -1.7870   -2.9477    0.9438 C.ar      1 ACP         0.5729
     32 HOG2       -2.5377    2.2323    5.1049 H         1 ACP         0.4440
     33 HOG3       -2.8957    3.3366    7.7331 H         1 ACP         0.4440
     34 H3B1       -2.3799    6.6539    5.8577 H         1 ACP         0.1084
     35 H3B2       -0.9958    5.6201    5.5148 H         1 ACP         0.1084
     36 H5'1       -1.7769    2.7852    2.1386 H         1 ACP         0.0281
     37 H5'2       -1.1652    2.0544    0.6320 H         1 ACP         0.0281
     38 H4'         0.0403    1.7078    3.4343 H         1 ACP         0.1082
     39 H3'         1.5906    1.4859    1.1353 H         1 ACP         0.0650
     40 HO3'        2.6839   -0.1150    2.2479 H         1 ACP         0.4300
     41 H2'        -0.0017    0.0018    0.0005 H         1 ACP         0.0785
     42 HO2'        2.0953   -0.9375    0.0709 H         1 ACP         0.4275
     43 H1'        -0.1998   -1.6319    2.6178 H         1 ACP         0.1009
     44 H8         -3.0609    0.0200    0.8250 H         1 ACP         0.1067
     45 HN61       -5.2046   -3.9433   -0.8775 H         1 ACP         0.4213
     46 HN62       -4.7849   -5.6332   -0.9625 H         1 ACP         0.4213
     47 H2         -0.6318   -5.9307    0.9993 H         1 ACP         0.0365
@<TRIPOS>BOND
     1    1    2 2
     2    1    3 1
     3    1    4 1
     4    1    8 1
     5    3   32 1
     6    4   33 1
     7    5    6 2
     8    5    7 1
     9    5    8 1
    10    5   12 1
    11    8   34 1
    12    8   35 1
    13    9   10 2
    14    9   11 1
    15    9   12 1
    16    9   13 1
    17   13   14 1
    18   14   15 1
    19   14   36 1
    20   14   37 1
    21   15   16 1
    22   15   17 1
    23   15   38 1
    24   16   21 1
    25   17   18 1
    26   17   19 1
    27   17   39 1
    28   18   40 1
    29   19   20 1
    30   19   21 1
    31   19   41 1
    32   20   42 1
    33   21   22 1
    34   21   43 1
    35   22   23 ar
    36   22   31 ar
    37   23   24 ar
    38   23   44 1
    39   24   25 ar
    40   25   26 ar
    41   25   31 ar
    42   26   27 1
    43   26   28 ar
    44   27   45 1
    45   27   46 1
    46   28   29 ar
    47   29   30 ar
    48   29   47 1
    49   30   31 ar
@<TRIPOS>SUBSTRUCTURE
     1 ACP         1 GROUP 0 A     ****
@<TRIPOS>MOLECULE
[[5-(6-aminopurin-9-yl)-3,4-dihydroxy-tetrahydrofuran-2-yl]methoxy-oxido-phosphoryl]oxy-(phosphonomethyl)phosphinate
   47    49     1     0     0
SMALL
USER_CHARGES

@<TRIPOS>ATOM
      1 PG         -4.4153    5.2463    3.7561 P.3       1 ACP         1.6478
      2 O1G        -3.7846    3.8875    3.6995 O.2       1 ACP        -0.9103
      3 O2G        -4.9009    5.7256    5.2206 O.3       1 ACP        -0.7989
      4 O3G        -5.7309    5.4382    2.8384 O.3       1 ACP        -0.7989
      5 PB         -2.6081    6.6806    1.5185 P.3       1 ACP         1.4947
      6 O1B        -1.7739    7.9390    1.4541 O.co2     1 ACP        -0.8554
      7 O2B        -3.7207    6.3985    0.5355 O.co2     1 ACP        -0.8554
      8 C3B        -3.3368    6.5919    3.2162 C.3       1 ACP        -0.6550
      9 PA         -0.4662    4.8323    0.6228 P.3       1 ACP         1.5921
     10 O1A         0.6572    5.8459    0.5874 O.co2     1 ACP        -0.8561
     11 O2A        -1.1249    4.3667   -0.6576 O.co2     1 ACP        -0.8561
     12 O3A        -1.6280    5.3822    1.6306 O.3       1 ACP        -0.8166
     13 O5'         0.0182    3.5132    1.4596 O.3       1 ACP        -0.5737
     14 C5'        -0.8811    2.4285    1.6206 C.3       1 ACP         0.2197
     15 C4'        -0.1994    1.3333    2.4288 C.3       1 ACP         0.0944
     16 O4'        -1.1285    0.2356    2.5840 O.3       1 ACP        -0.4017
     17 C3'         1.0324    0.7610    1.7344 C.3       1 ACP         0.0859
     18 O3'         1.9175    0.2377    2.7247 O.3       1 ACP        -0.5941
     19 C2'         0.4468   -0.3802    0.9263 C.3       1 ACP         0.0924
     20 O2'         1.3993   -1.3703    0.5961 O.3       1 ACP        -0.5928
     21 C1'        -0.6159   -0.9100    1.8769 C.3       1 ACP         0.3967
     22 N9         -1.7127   -1.6108    1.2130 N.pl3     1 ACP        -0.6763
     23 C8         -2.8641   -1.0399    0.7392 C.ar      1 ACP         0.5586
     24 N7         -3.6659   -1.9257    0.1858 N.2       1 ACP        -0.5795
     25 C5         -3.0053   -3.1223    0.3069 C.ar      1 ACP        -0.2116
     26 C6         -3.3321   -4.4178   -0.0813 C.ar      1 ACP         0.7185
     27 N6         -4.5476   -4.6866   -0.7335 N.pl3     1 ACP        -0.9442
     28 N1         -2.4608   -5.4225    0.1773 N.ar      1 ACP        -0.8040
     29 C2         -1.3053   -5.1020    0.8081 C.ar      1 ACP         0.6560
     30 N3         -0.8788   -3.8921    1.2315 N.ar      1 ACP        -0.7058
     31 C4         -1.7870   -2.9477    0.9438 C.ar      1 ACP         0.5729
     32 HOG2       -5.5720    5.1919    5.6968 H         1 ACP         0.4440
     33 HOG3       -6.5112    4.8665    3.0010 H         1 ACP         0.4440
     34 H3B1       -3.8865    7.5305    3.3498 H         1 ACP         0.1084
     35 H3B2       -2.4873    6.6181    3.9080 H         1 ACP         0.1084
     36 H5'1       -1.7769    2.7852    2.1386 H         1 ACP         0.0281
     37 H5'2       -1.1652    2.0544    0.6320 H         1 ACP         0.0281
     38 H4'         0.0403    1.7078    3.4343 H         1 ACP         0.1082
     39 H3'         1.5906    1.4859    1.1353 H         1 ACP         0.0650
     40 HO3'        2.6839   -0.1150    2.2479 H         1 ACP         0.4300
     41 H2'        -0.0017    0.0018    0.0005 H         1 ACP         0.0785
     42 HO2'        2.0953   -0.9375    0.0709 H         1 ACP         0.4275
     43 H1'        -0.1998   -1.6319    2.6178 H         1 ACP         0.1009
     44 H8         -3.0609    0.0200    0.8250 H         1 ACP         0.1067
     45 HN61       -5.2046   -3.9433   -0.8775 H         1 ACP         0.4213
     46 HN62       -4.7849   -5.6332   -0.9625 H         1 ACP         0.4213
     47 H2         -0.6318   -5.9307    0.9993 H         1 ACP         0.0365
@<TRIPOS>BOND
     1    1    2 2
     2    1    3 1
     3    1    4 1
     4    1    8 1
     5    3   32 1
     6    4   33 1
     7    5    6 2
     8    5    7 1
     9    5    8 1
    10    5   12 1
    11    8   34 1
    12    8   35 1
    13    9   10 2
    14    9   11 1
    15    9   12 1
    16    9   13 1
    17   13   14 1
    18   14   15 1
    19   14   36 1
    20   14   37 1
    21   15   16 1
    22   15   17 1
    23   15   38 1
    24   16   21 1
    25   17   18 1
    26   17   19 1
    27   17   39 1
    28   18   40 1
    29   19   20 1
    30   19   21 1
    31   19   41 1
    32   20   42 1
    33   21   22 1
    34   21   43 1
    35   22   23 ar
    36   22   31 ar
    37   23   24 ar
    38   23   44 1
    39   24   25 ar
    40   25   26 ar
    41   25   31 ar
    42   26   27 1
    43   26   28 ar
    44   27   45 1
    45   27   46 1
    46   28   29 ar
    47   29   30 ar
    48   29   47 1
    49   30   31 ar
@<TRIPOS>SUBSTRUCTURE
     1 ACP         1 GROUP 0 A     ****
@<TRIPOS>MOLECULE
[[5-(6-aminopurin-9-yl)-3,4-dihydroxy-tetrahydrofuran-2-yl]methoxy-oxido-phosphoryl]oxy-(phosphonomethyl)phosphinate
   47    49     1     0     0
SMALL
USER_CHARGES

@<TRIPOS>ATOM
      1 PG         -3.1009    3.0463   -2.4192 P.3       1 ACP         1.6478
      2 O1G        -2.4826    1.6941   -2.6102 O.2       1 ACP        -0.9103
      3 O2G        -3.7314    3.3208   -0.9572 O.3       1 ACP        -0.7989
      4 O3G        -4.3114    3.4033   -3.4276 O.3       1 ACP        -0.7989
      5 PB         -0.4377    4.6553   -1.6141 P.3       1 ACP         1.4947
      6 O1B         0.2487    5.9106   -2.1004 O.co2     1 ACP        -0.8554
      7 O2B         0.2690    3.3209   -1.5528 O.co2     1 ACP        -0.8554
      8 C3B        -1.9574    4.4275   -2.6433 C.3       1 ACP        -0.6550
      9 PA         -0.5788    5.0300    1.3263 P.3       1 ACP         1.5921
     10 O1A        -1.7338    5.2023    2.2890 O.co2     1 ACP        -0.8561
     11 O2A         0.5830    5.9997    1.3349 O.co2     1 ACP        -0.8561
     12 O3A        -1.1769    4.9545   -0.1916 O.3       1 ACP        -0.8166
     13 O5'         0.0182    3.5132    1.4596 O.3       1 ACP        -0.5737
     14 C5'        -0.8811    2.4285    1.6206 C.3       1 ACP         0.2197
     15 C4'        -0.1994    1.3333    2.4288 C.3       1 ACP         0.0944
     16 O4'        -1.1285    0.2356    2.5840 O.3       1 ACP        -0.4017
     17 C3'         1.0324    0.7610    1.7344 C.3       1 ACP         0.0859
     18 O3'         1.9175    0.2377    2.7247 O.3       1 ACP        -0.5941
     19 C2'         0.4468   -0.3802    0.9263 C.3       1 ACP         0.0924
     20 O2'         1.3993   -1.3703    0.5961 O.3       1 ACP        -0.5928
     21 C1'        -0.6159   -0.9100    1.8769 C.3       1 ACP         0.3967
     22 N9         -1.7127   -1.6108    1.2130 N.pl3     1 ACP        -0.6763
     23 C8         -2.8641   -1.0399    0.7392 C.ar      1 ACP         0.5586
     24 N7         -3.6659   -1.9257    0.1858 N.2       1 ACP        -0.5795
     25 C5         -3.0053   -3.1223    0.3069 C.ar      1 ACP        -0.2116
     26 C6         -3.3321   -4.4178   -0.0813 C.ar      1 ACP         0.7185
     27 N6         -4.5476   -4.6866   -0.7335 N.pl3     1 ACP        -0.9442
     28 N1         -2.4608   -5.4225    0.1773 N.ar      1 ACP        -0.8040
     29 C2         -1.3053   -5.1020    0.8081 C.ar      1 ACP         0.6560
     30 N3         -0.8788   -3.8921    1.2315 N.ar      1 ACP        -0.7058
     31 C4         -1.7870   -2.9477    0.9438 C.ar      1 ACP         0.5729
     32 HOG2       -4.4544    2.7414   -0.6352 H         1 ACP         0.4440
     33 HOG3       -5.1105    2.8346   -3.4309 H         1 ACP         0.4440
     34 H3B1       -1.6085    4.4031   -3.6818 H         1 ACP         0.1084
     35 H3B2       -2.5404    5.3478   -2.5237 H         1 ACP         0.1084
     36 H5'1       -1.7769    2.7852    2.1386 H         1 ACP         0.0281
     37 H5'2       -1.1652    2.0544    0.6320 H         1 ACP         0.0281
     38 H4'         0.0403    1.7078    3.4343 H         1 ACP         0.1082
     39 H3'         1.5906    1.4859    1.1353 H         1 ACP         0.0650
     40 HO3'        2.6839   -0.1150    2.2479 H         1 ACP         0.4300
     41 H2'        -0.0017    0.0018    0.0005 H         1 ACP         0.0785
     42 HO2'        0.9369   -2.0558    0.0825 H         1 ACP         0.4275
     43 H1'        -0.1998   -1.6319    2.6178 H         1 ACP         0.1009
     44 H8         -3.0609    0.0200    0.8250 H         1 ACP         0.1067
     45 HN61       -4.7432   -5.6184   -1.0469 H         1 ACP         0.4213
     46 HN62       -5.1624   -3.9284   -0.9616 H         1 ACP         0.4213
     47 H2         -0.6318   -5.9307    0.9993 H         1 ACP         0.0365
@<TRIPOS>BOND
     1    1    2 2
     2    1    3 1
     3    1    4 1
     4    1    8 1
     5    3   32 1
     6    4   33 1
     7    5    6 2
     8    5    7 1
     9    5    8 1
    10    5   12 1
    11    8   34 1
    12    8   35 1
    13    9   10 2
    14    9   11 1
    15    9   12 1
    16    9   13 1
    17   13   14 1
    18   14   15 1
    19   14   36 1
    20   14   37 1
    21   15   16 1
    22   15   17 1
    23   15   38 1
    24   16   21 1
    25   17   18 1
    26   17   19 1
    27   17   39 1
    28   18   40 1
    29   19   20 1
    30   19   21 1
    31   19   41 1
    32   20   42 1
    33   21   22 1
    34   21   43 1
    35   22   23 ar
    36   22   31 ar
    37   23   24 ar
    38   23   44 1
    39   24   25 ar
    40   25   26 ar
    41   25   31 ar
    42   26   27 1
    43   26   28 ar
    44   27   45 1
    45   27   46 1
    46   28   29 ar
    47   29   30 ar
    48   29   47 1
    49   30   31 ar
@<TRIPOS>SUBSTRUCTURE
     1 ACP         1 GROUP 0 A     ****
@<TRIPOS>MOLECULE
[[5-(6-aminopurin-9-yl)-3,4-dihydroxy-tetrahydrofuran-2-yl]methoxy-oxido-phosphoryl]oxy-(phosphonomethyl)phosphinate
   47    49     1     0     0
SMALL
USER_CHARGES

@<TRIPOS>ATOM
      1 PG         -1.7543    4.2908   -2.7280 P.3       1 ACP         1.6478
      2 O1G        -0.8990    3.4042   -1.8739 O.2       1 ACP        -0.9103
      3 O2G        -2.1260    3.7014   -4.1856 O.3       1 ACP        -0.7989
      4 O3G        -1.1342    5.7464   -3.0541 O.3       1 ACP        -0.7989
      5 PB         -3.5712    5.5536   -0.3969 P.3       1 ACP         1.4947
      6 O1B        -5.0549    5.6943   -0.1467 O.co2     1 ACP        -0.8554
      7 O2B        -2.6379    6.7420   -0.4057 O.co2     1 ACP        -0.8554
      8 C3B        -3.3683    4.6812   -2.0151 C.3       1 ACP        -0.6550
      9 PA         -2.5401    4.4095    2.1396 P.3       1 ACP         1.5921
     10 O1A        -3.7865    4.6313    2.9690 O.co2     1 ACP        -0.8561
     11 O2A        -1.3389    5.3166    2.2956 O.co2     1 ACP        -0.8561
     12 O3A        -2.9654    4.3827    0.5629 O.3       1 ACP        -0.8166
     13 O5'        -2.0402    2.8619    2.3132 O.3       1 ACP        -0.5737
     14 C5'        -0.8811    2.4285    1.6206 C.3       1 ACP         0.2197
     15 C4'        -0.1994    1.3333    2.4288 C.3       1 ACP         0.0944
     16 O4'        -1.1285    0.2356    2.5840 O.3       1 ACP        -0.4017
     17 C3'         1.0324    0.7610    1.7344 C.3       1 ACP         0.0859
     18 O3'         1.9175    0.2377    2.7247 O.3       1 ACP        -0.5941
     19 C2'         0.4468   -0.3802    0.9263 C.3       1 ACP         0.0924
     20 O2'         1.3993   -1.3703    0.5961 O.3       1 ACP        -0.5928
     21 C1'        -0.6159   -0.9100    1.8769 C.3       1 ACP         0.3967
     22 N9         -1.7127   -1.6108    1.2130 N.pl3     1 ACP        -0.6763
     23 C8         -2.8641   -1.0399    0.7392 C.ar      1 ACP         0.5586
     24 N7         -3.6659   -1.9257    0.1858 N.2       1 ACP        -0.5795
     25 C5         -3.0053   -3.1223    0.3069 C.ar      1 ACP        -0.2116
     26 C6         -3.3321   -4.4178   -0.0813 C.ar      1 ACP         0.7185
     27 N6         -4.5476   -4.6866   -0.7335 N.pl3     1 ACP        -0.9442
     28 N1         -2.4608   -5.4225    0.1773 N.ar      1 ACP        -0.8040
     29 C2         -1.3053   -5.1020    0.8081 C.ar      1 ACP         0.6560
     30 N3         -0.8788   -3.8921    1.2315 N.ar      1 ACP        -0.7058
     31 C4         -1.7870   -2.9477    0.9438 C.ar      1 ACP         0.5729
     32 HOG2       -1.4010    3.4884   -4.8109 H         1 ACP         0.4440
     33 HOG3       -0.2785    5.8025   -3.5302 H         1 ACP         0.4440
     34 H3B1       -3.9154    5.2868   -2.7464 H         1 ACP         0.1084
     35 H3B2       -3.9110    3.7344   -1.9146 H         1 ACP         0.1084
     36 H5'1       -1.1771    2.0504    0.6370 H         1 ACP         0.0281
     37 H5'2       -0.2083    3.2816    1.4878 H         1 ACP         0.0281
     38 H4'         0.0403    1.7078    3.4343 H         1 ACP         0.1082
     39 H3'         1.5906    1.4859    1.1353 H         1 ACP         0.0650
     40 HO3'        2.6839   -0.1150    2.2479 H         1 ACP         0.4300
     41 H2'        -0.0017    0.0018    0.0005 H         1 ACP         0.0785
     42 HO2'        2.0953   -0.9375    0.0709 H         1 ACP         0.4275
     43 H1'        -0.1998   -1.6319    2.6178 H         1 ACP         0.1009
     44 H8         -3.0609    0.0200    0.8250 H         1 ACP         0.1067
     45 HN61       -5.2046   -3.9433   -0.8775 H         1 ACP         0.4213
     46 HN62       -4.7849   -5.6332   -0.9625 H         1 ACP         0.4213
     47 H2         -0.6318   -5.9307    0.9993 H         1 ACP         0.0365
@<TRIPOS>BOND
     1    1    2 2
     2    1    3 1
     3    1    4 1
     4    1    8 1
     5    3   32 1
     6    4   33 1
     7    5    6 2
     8    5    7 1
     9    5    8 1
    10    5   12 1
    11    8   34 1
    12    8   35 1
    13    9   10 2
    14    9   11 1
    15    9   12 1
    16    9   13 1
    17   13   14 1
    18   14   15 1
    19   14   36 1
    20   14   37 1
    21   15   16 1
    22   15   17 1
    23   15   38 1
    24   16   21 1
    25   17   18 1
    26   17   19 1
    27   17   39 1
    28   18   40 1
    29   19   20 1
    30   19   21 1
    31   19   41 1
    32   20   42 1
    33   21   22 1
    34   21   43 1
    35   22   23 ar
    36   22   31 ar
    37   23   24 ar
    38   23   44 1
    39   24   25 ar
    40   25   26 ar
    41   25   31 ar
    42   26   27 1
    43   26   28 ar
    44   27   45 1
    45   27   46 1
    46   28   29 ar
    47   29   30 ar
    48   29   47 1
    49   30   31 ar
@<TRIPOS>SUBSTRUCTURE
     1 ACP         1 GROUP 0 A     ****
@<TRIPOS>MOLECULE
[[5-(6-aminopurin-9-yl)-3,4-dihydroxy-tetrahydrofuran-2-yl]methoxy-oxido-phosphoryl]oxy-(phosphonomethyl)phosphinate
   47    49     1     0     0
SMALL
USER_CHARGES

@<TRIPOS>ATOM
      1 PG         -1.6204    1.8896   -2.9968 P.3       1 ACP         1.6478
      2 O1G        -1.3107    1.2819   -1.6619 O.2       1 ACP        -0.9103
      3 O2G        -3.1545    2.3484   -3.2114 O.3       1 ACP        -0.7989
      4 O3G        -1.3247    0.9449   -4.2735 O.3       1 ACP        -0.7989
      5 PB         -0.7695    4.9159   -2.3280 P.3       1 ACP         1.4947
      6 O1B        -2.2079    5.3792   -2.3302 O.co2     1 ACP        -0.8554
      7 O2B         0.3687    5.8149   -2.7520 O.co2     1 ACP        -0.8554
      8 C3B        -0.6835    3.3894   -3.3687 C.3       1 ACP        -0.6550
      9 PA         -0.4662    4.8323    0.6228 P.3       1 ACP         1.5921
     10 O1A        -1.9048    5.1484    0.9710 O.co2     1 ACP        -0.8561
     11 O2A         0.6070    5.8922    0.7447 O.co2     1 ACP        -0.8561
     12 O3A        -0.4219    4.2246   -0.8925 O.3       1 ACP        -0.8166
     13 O5'         0.0182    3.5132    1.4596 O.3       1 ACP        -0.5737
     14 C5'        -0.8811    2.4285    1.6206 C.3       1 ACP         0.2197
     15 C4'        -0.1994    1.3333    2.4288 C.3       1 ACP         0.0944
     16 O4'        -1.1285    0.2356    2.5840 O.3       1 ACP        -0.4017
     17 C3'         1.0324    0.7610    1.7344 C.3       1 ACP         0.0859
     18 O3'         1.9175    0.2377    2.7247 O.3       1 ACP        -0.5941
     19 C2'         0.4468   -0.3802    0.9263 C.3       1 ACP         0.0924
     20 O2'         1.3993   -1.3703    0.5961 O.3       1 ACP        -0.5928
     21 C1'        -0.6159   -0.9100    1.8769 C.3       1 ACP         0.3967
     22 N9         -1.7127   -1.6108    1.2130 N.pl3     1 ACP        -0.6763
     23 C8         -1.7712   -2.9546    0.9544 C.ar      1 ACP         0.5586
     24 N7         -2.8883   -3.2948    0.3462 N.2       1 ACP        -0.5795
     25 C5         -3.5834   -2.1202    0.2043 C.ar      1 ACP        -0.2116
     26 C6         -4.8225   -1.8251   -0.3554 C.ar      1 ACP         0.7185
     27 N6         -5.6154   -2.8394   -0.9189 N.pl3     1 ACP        -0.9442
     28 N1         -5.2589   -0.5425   -0.3507 N.ar      1 ACP        -0.8040
     29 C2         -4.4510    0.3913    0.2069 C.ar      1 ACP         0.6560
     30 N3         -3.2368    0.2296    0.7767 N.ar      1 ACP        -0.7058
     31 C4         -2.8684   -1.0596    0.7376 C.ar      1 ACP         0.5729
     32 HOG2       -3.8651    1.6754   -3.1470 H         1 ACP         0.4440
     33 HOG3       -1.7943    0.0870   -4.3487 H         1 ACP         0.4440
     34 H3B1        0.3773    3.1168   -3.4040 H         1 ACP         0.1084
     35 H3B2       -0.9670    3.7009   -4.3805 H         1 ACP         0.1084
     36 H5'1       -1.7769    2.7852    2.1386 H         1 ACP         0.0281
     37 H5'2       -1.1652    2.0544    0.6320 H         1 ACP         0.0281
     38 H4'         0.0403    1.7078    3.4343 H         1 ACP         0.1082
     39 H3'         1.5906    1.4859    1.1353 H         1 ACP         0.0650
     40 HO3'        2.6839   -0.1150    2.2479 H         1 ACP         0.4300
     41 H2'        -0.0017    0.0018    0.0005 H         1 ACP         0.0785
     42 HO2'        2.0953   -0.9375    0.0709 H         1 ACP         0.4275
     43 H1'        -0.1998   -1.6319    2.6178 H         1 ACP         0.1009
     44 H8         -0.9745   -3.6312    1.2318 H         1 ACP         0.1067
     45 HN61       -5.2619   -3.7766   -0.9586 H         1 ACP         0.4213
     46 HN62       -6.4834   -2.5990   -1.3590 H         1 ACP         0.4213
     47 H2         -4.8317    1.4071    0.1930 H         1 ACP         0.0365
@<TRIPOS>BOND
     1    1    2 2
     2    1    3 1
     3    1    4 1
     4    1    8 1
     5    3   32 1
     6    4   33 1
     7    5    6 2
     8    5    7 1
     9    5    8 1
    10    5   12 1
    11    8   34 1
    12    8   35 1
    13    9   10 2
    14    9   11 1
    15    9   12 1
    16    9   13 1
    17   13   14 1
    18   14   15 1
    19   14   36 1
    20   14   37 1
    21   15   16 1
    22   15   17 1
    23   15   38 1
    24   16   21 1
    25   17   18 1
    26   17   19 1
    27   17   39 1
    28   18   40 1
    29   19   20 1
    30   19   21 1
    31   19   41 1
    32   20   42 1
    33   21   22 1
    34   21   43 1
    35   22   23 ar
    36   22   31 ar
    37   23   24 ar
    38   23   44 1
    39   24   25 ar
    40   25   26 ar
    41   25   31 ar
    42   26   27 1
    43   26   28 ar
    44   27   45 1
    45   27   46 1
    46   28   29 ar
    47   29   30 ar
    48   29   47 1
    49   30   31 ar
@<TRIPOS>SUBSTRUCTURE
     1 ACP         1 GROUP 0 A     ****
@<TRIPOS>MOLECULE
[[5-(6-aminopurin-9-yl)-3,4-dihydroxy-tetrahydrofuran-2-yl]methoxy-oxido-phosphoryl]oxy-(phosphonomethyl)phosphinate
   47    49     1     0     0
SMALL
USER_CHARGES

@<TRIPOS>ATOM
      1 PG         -0.9071    4.8482   -4.1625 P.3       1 ACP         1.6478
      2 O1G        -2.0213    5.4322   -3.3471 O.2       1 ACP        -0.9103
      3 O2G         0.2972    5.8639   -4.5202 O.3       1 ACP        -0.7989
      4 O3G        -1.3397    4.2512   -5.5999 O.3       1 ACP        -0.7989
      5 PB          0.8133    3.5976   -1.7529 P.3       1 ACP         1.4947
      6 O1B         1.8969    4.6386   -1.9130 O.co2     1 ACP        -0.8554
      7 O2B         1.1069    2.1933   -1.2780 O.co2     1 ACP        -0.8554
      8 C3B        -0.0583    3.4589   -3.3783 C.3       1 ACP        -0.6550
      9 PA         -0.4662    4.8323    0.6228 P.3       1 ACP         1.5921
     10 O1A        -1.9048    5.1484    0.9710 O.co2     1 ACP        -0.8561
     11 O2A         0.6070    5.8922    0.7447 O.co2     1 ACP        -0.8561
     12 O3A        -0.4219    4.2246   -0.8925 O.3       1 ACP        -0.8166
     13 O5'         0.0182    3.5132    1.4596 O.3       1 ACP        -0.5737
     14 C5'        -0.8811    2.4285    1.6206 C.3       1 ACP         0.2197
     15 C4'        -0.1994    1.3333    2.4288 C.3       1 ACP         0.0944
     16 O4'        -1.1285    0.2356    2.5840 O.3       1 ACP        -0.4017
     17 C3'         1.0324    0.7610    1.7344 C.3       1 ACP         0.0859
     18 O3'         1.9175    0.2377    2.7247 O.3       1 ACP        -0.5941
     19 C2'         0.4468   -0.3802    0.9263 C.3       1 ACP         0.0924
     20 O2'         1.3993   -1.3703    0.5961 O.3       1 ACP        -0.5928
     21 C1'        -0.6159   -0.9100    1.8769 C.3       1 ACP         0.3967
     22 N9         -1.7127   -1.6108    1.2130 N.pl3     1 ACP        -0.6763
     23 C8         -2.8641   -1.0399    0.7392 C.ar      1 ACP         0.5586
     24 N7         -3.6659   -1.9257    0.1858 N.2       1 ACP        -0.5795
     25 C5         -3.0053   -3.1223    0.3069 C.ar      1 ACP        -0.2116
     26 C6         -3.3321   -4.4178   -0.0813 C.ar      1 ACP         0.7185
     27 N6         -4.5476   -4.6866   -0.7335 N.pl3     1 ACP        -0.9442
     28 N1         -2.4608   -5.4225    0.1773 N.ar      1 ACP        -0.8040
     29 C2         -1.3053   -5.1020    0.8081 C.ar      1 ACP         0.6560
     30 N3         -0.8788   -3.8921    1.2315 N.ar      1 ACP        -0.7058
     31 C4         -1.7870   -2.9477    0.9438 C.ar      1 ACP         0.5729
     32 HOG2        0.0980    6.6742   -5.0357 H         1 ACP         0.4440
     33 HOG3       -1.7546    4.8492   -6.2574 H         1 ACP         0.4440
     34 H3B1       -0.7897    2.6527   -3.2521 H         1 ACP         0.1084
     35 H3B2        0.6930    3.0998   -4.0909 H         1 ACP         0.1084
     36 H5'1       -1.7769    2.7852    2.1386 H         1 ACP         0.0281
     37 H5'2       -1.1652    2.0544    0.6320 H         1 ACP         0.0281
     38 H4'         0.0403    1.7078    3.4343 H         1 ACP         0.1082
     39 H3'         1.5906    1.4859    1.1353 H         1 ACP         0.0650
     40 HO3'        2.6839   -0.1150    2.2479 H         1 ACP         0.4300
     41 H2'        -0.0017    0.0018    0.0005 H         1 ACP         0.0785
     42 HO2'        2.0953   -0.9375    0.0709 H         1 ACP         0.4275
     43 H1'        -0.1998   -1.6319    2.6178 H         1 ACP         0.1009
     44 H8         -3.0609    0.0200    0.8250 H         1 ACP         0.1067
     45 HN61       -5.2046   -3.9433   -0.8775 H         1 ACP         0.4213
     46 HN62       -4.7849   -5.6332   -0.9625 H         1 ACP         0.4213
     47 H2         -0.6318   -5.9307    0.9993 H         1 ACP         0.0365
@<TRIPOS>BOND
     1    1    2 2
     2    1    3 1
     3    1    4 1
     4    1    8 1
     5    3   32 1
     6    4   33 1
     7    5    6 2
     8    5    7 1
     9    5    8 1
    10    5   12 1
    11    8   34 1
    12    8   35 1
    13    9   10 2
    14    9   11 1
    15    9   12 1
    16    9   13 1
    17   13   14 1
    18   14   15 1
    19   14   36 1
    20   14   37 1
    21   15   16 1
    22   15   17 1
    23   15   38 1
    24   16   21 1
    25   17   18 1
    26   17   19 1
    27   17   39 1
    28   18   40 1
    29   19   20 1
    30   19   21 1
    31   19   41 1
    32   20   42 1
    33   21   22 1
    34   21   43 1
    35   22   23 ar
    36   22   31 ar
    37   23   24 ar
    38   23   44 1
    39   24   25 ar
    40   25   26 ar
    41   25   31 ar
    42   26   27 1
    43   26   28 ar
    44   27   45 1
    45   27   46 1
    46   28   29 ar
    47   29   30 ar
    48   29   47 1
    49   30   31 ar
@<TRIPOS>SUBSTRUCTURE
     1 ACP         1 GROUP 0 A     ****
@<TRIPOS>MOLECULE
[[5-(6-aminopurin-9-yl)-3,4-dihydroxy-tetrahydrofuran-2-yl]methoxy-oxido-phosphoryl]oxy-(phosphonomethyl)phosphinate
   47    49     1     0     0
SMALL
USER_CHARGES

@<TRIPOS>ATOM
      1 PG          1.4471    7.3932    2.5008 P.3       1 ACP         1.6478
      2 O1G         1.4273    6.1519    3.3410 O.2       1 ACP        -0.9103
      3 O2G         2.8931    7.8107    1.9134 O.3       1 ACP        -0.7989
      4 O3G         0.9344    8.7365    3.2372 O.3       1 ACP        -0.7989
      5 PB         -1.4194    7.0352    1.0919 P.3       1 ACP         1.4947
      6 O1B        -1.9246    7.0299   -0.3323 O.co2     1 ACP        -0.8554
      7 O2B        -1.9771    7.9670    2.1427 O.co2     1 ACP        -0.8554
      8 C3B         0.4082    7.3109    1.0245 C.3       1 ACP        -0.6550
      9 PA         -2.5927    4.4187    1.8559 P.3       1 ACP         1.5921
     10 O1A        -3.1158    4.0380    0.4876 O.co2     1 ACP        -0.8561
     11 O2A        -3.5338    4.9255    2.9271 O.co2     1 ACP        -0.8561
     12 O3A        -1.3917    5.5091    1.6659 O.3       1 ACP        -0.8166
     13 O5'        -1.7337    3.1724    2.4754 O.3       1 ACP        -0.5737
     14 C5'        -0.8811    2.4285    1.6206 C.3       1 ACP         0.2197
     15 C4'        -0.1994    1.3333    2.4288 C.3       1 ACP         0.0944
     16 O4'        -1.1285    0.2356    2.5840 O.3       1 ACP        -0.4017
     17 C3'         1.0324    0.7610    1.7344 C.3       1 ACP         0.0859
     18 O3'         1.9175    0.2377    2.7247 O.3       1 ACP        -0.5941
     19 C2'         0.4468   -0.3802    0.9263 C.3       1 ACP         0.0924
     20 O2'         1.3993   -1.3703    0.5961 O.3       1 ACP        -0.5928
     21 C1'        -0.6159   -0.9100    1.8769 C.3       1 ACP         0.3967
     22 N9         -1.7127   -1.6108    1.2130 N.pl3     1 ACP        -0.6763
     23 C8         -2.8641   -1.0399    0.7392 C.ar      1 ACP         0.5586
     24 N7         -3.6659   -1.9257    0.1858 N.2       1 ACP        -0.5795
     25 C5         -3.0053   -3.1223    0.3069 C.ar      1 ACP        -0.2116
     26 C6         -3.3321   -4.4178   -0.0813 C.ar      1 ACP         0.7185
     27 N6         -4.5476   -4.6866   -0.7335 N.pl3     1 ACP        -0.9442
     28 N1         -2.4608   -5.4225    0.1773 N.ar      1 ACP        -0.8040
     29 C2         -1.3053   -5.1020    0.8081 C.ar      1 ACP         0.6560
     30 N3         -0.8788   -3.8921    1.2315 N.ar      1 ACP        -0.7058
     31 C4         -1.7870   -2.9477    0.9438 C.ar      1 ACP         0.5729
     32 HOG2        3.6232    8.0016    2.5399 H         1 ACP         0.4440
     33 HOG3        1.4066    9.0492    4.0380 H         1 ACP         0.4440
     34 H3B1        0.5443    8.2471    0.4714 H         1 ACP         0.1084
     35 H3B2        0.8089    6.5075    0.3959 H         1 ACP         0.1084
     36 H5'1       -1.4802    1.9929    0.8148 H         1 ACP         0.0281
     37 H5'2       -0.1370    3.1043    1.1873 H         1 ACP         0.0281
     38 H4'         0.0403    1.7078    3.4343 H         1 ACP         0.1082
     39 H3'         1.5906    1.4859    1.1353 H         1 ACP         0.0650
     40 HO3'        2.1521    0.9800    3.3017 H         1 ACP         0.4300
     41 H2'        -0.0017    0.0018    0.0005 H         1 ACP         0.0785
     42 HO2'        0.9369   -2.0558    0.0825 H         1 ACP         0.4275
     43 H1'        -0.1998   -1.6319    2.6178 H         1 ACP         0.1009
     44 H8         -3.0609    0.0200    0.8250 H         1 ACP         0.1067
     45 HN61       -5.2046   -3.9433   -0.8775 H         1 ACP         0.4213
     46 HN62       -4.7849   -5.6332   -0.9625 H         1 ACP         0.4213
     47 H2         -0.6318   -5.9307    0.9993 H         1 ACP         0.0365
@<TRIPOS>BOND
     1    1    2 2
     2    1    3 1
     3    1    4 1
     4    1    8 1
     5    3   32 1
     6    4   33 1
     7    5    6 2
     8    5    7 1
     9    5    8 1
    10    5   12 1
    11    8   34 1
    12    8   35 1
    13    9   10 2
    14    9   11 1
    15    9   12 1
    16    9   13 1
    17   13   14 1
    18   14   15 1
    19   14   36 1
    20   14   37 1
    21   15   16 1
    22   15   17 1
    23   15   38 1
    24   16   21 1
    25   17   18 1
    26   17   19 1
    27   17   39 1
    28   18   40 1
    29   19   20 1
    30   19   21 1
    31   19   41 1
    32   20   42 1
    33   21   22 1
    34   21   43 1
    35   22   23 ar
    36   22   31 ar
    37   23   24 ar
    38   23   44 1
    39   24   25 ar
    40   25   26 ar
    41   25   31 ar
    42   26   27 1
    43   26   28 ar
    44   27   45 1
    45   27   46 1
    46   28   29 ar
    47   29   30 ar
    48   29   47 1
    49   30   31 ar
@<TRIPOS>SUBSTRUCTURE
     1 ACP         1 GROUP 0 A     ****
@<TRIPOS>MOLECULE
[[5-(6-aminopurin-9-yl)-3,4-dihydroxy-tetrahydrofuran-2-yl]methoxy-oxido-phosphoryl]oxy-(phosphonomethyl)phosphinate
   47    49     1     0     0
SMALL
USER_CHARGES

@<TRIPOS>ATOM
      1 PG          2.7617    5.3706    2.1019 P.3       1 ACP         1.6478
      2 O1G         2.2296    3.9692    2.0940 O.2       1 ACP        -0.9103
      3 O2G         2.9074    6.0659    0.6508 O.3       1 ACP        -0.7989
      4 O3G         4.2267    5.5518    2.7582 O.3       1 ACP        -0.7989
      5 PB         -0.0154    6.9094    2.6020 P.3       1 ACP         1.4947
      6 O1B        -0.0360    7.4460    1.1895 O.co2     1 ACP        -0.8554
      7 O2B        -0.6105    7.6710    3.7636 O.co2     1 ACP        -0.8554
      8 C3B         1.7484    6.5477    3.0255 C.3       1 ACP        -0.6550
      9 PA         -2.0037    4.7529    2.1525 P.3       1 ACP         1.5921
     10 O1A        -2.1554    4.9422    0.6587 O.co2     1 ACP        -0.8561
     11 O2A        -3.0660    5.2571    3.1051 O.co2     1 ACP        -0.8561
     12 O3A        -0.5638    5.3737    2.6095 O.3       1 ACP        -0.8166
     13 O5'        -1.7337    3.1724    2.4754 O.3       1 ACP        -0.5737
     14 C5'        -0.8811    2.4285    1.6206 C.3       1 ACP         0.2197
     15 C4'        -0.1994    1.3333    2.4288 C.3       1 ACP         0.0944
     16 O4'        -1.1285    0.2356    2.5840 O.3       1 ACP        -0.4017
     17 C3'         1.0324    0.7610    1.7344 C.3       1 ACP         0.0859
     18 O3'         1.9175    0.2377    2.7247 O.3       1 ACP        -0.5941
     19 C2'         0.4468   -0.3802    0.9263 C.3       1 ACP         0.0924
     20 O2'         1.3993   -1.3703    0.5961 O.3       1 ACP        -0.5928
     21 C1'        -0.6159   -0.9100    1.8769 C.3       1 ACP         0.3967
     22 N9         -1.7127   -1.6108    1.2130 N.pl3     1 ACP        -0.6763
     23 C8         -2.8641   -1.0399    0.7392 C.ar      1 ACP         0.5586
     24 N7         -3.6659   -1.9257    0.1858 N.2       1 ACP        -0.5795
     25 C5         -3.0053   -3.1223    0.3069 C.ar      1 ACP        -0.2116
     26 C6         -3.3321   -4.4178   -0.0813 C.ar      1 ACP         0.7185
     27 N6         -4.5476   -4.6866   -0.7335 N.pl3     1 ACP        -0.9442
     28 N1         -2.4608   -5.4225    0.1773 N.ar      1 ACP        -0.8040
     29 C2         -1.3053   -5.1020    0.8081 C.ar      1 ACP         0.6560
     30 N3         -0.8788   -3.8921    1.2315 N.ar      1 ACP        -0.7058
     31 C4         -1.7870   -2.9477    0.9438 C.ar      1 ACP         0.5729
     32 HOG2        3.4928    5.6512   -0.0180 H         1 ACP         0.4440
     33 HOG3        4.9856    5.0692    2.3669 H         1 ACP         0.4440
     34 H3B1        1.7394    6.2262    4.0731 H         1 ACP         0.1084
     35 H3B2        2.2678    7.5122    2.9918 H         1 ACP         0.1084
     36 H5'1       -1.4802    1.9929    0.8148 H         1 ACP         0.0281
     37 H5'2       -0.1370    3.1043    1.1873 H         1 ACP         0.0281
     38 H4'         0.0403    1.7078    3.4343 H         1 ACP         0.1082
     39 H3'         1.5906    1.4859    1.1353 H         1 ACP         0.0650
     40 HO3'        2.1521    0.9800    3.3017 H         1 ACP         0.4300
     41 H2'        -0.0017    0.0018    0.0005 H         1 ACP         0.0785
     42 HO2'        2.0953   -0.9375    0.0709 H         1 ACP         0.4275
     43 H1'        -0.1998   -1.6319    2.6178 H         1 ACP         0.1009
     44 H8         -3.0609    0.0200    0.8250 H         1 ACP         0.1067
     45 HN61       -5.2046   -3.9433   -0.8775 H         1 ACP         0.4213
     46 HN62       -4.7849   -5.6332   -0.9625 H         1 ACP         0.4213
     47 H2         -0.6318   -5.9307    0.9993 H         1 ACP         0.0365
@<TRIPOS>BOND
     1    1    2 2
     2    1    3 1
     3    1    4 1
     4    1    8 1
     5    3   32 1
     6    4   33 1
     7    5    6 2
     8    5    7 1
     9    5    8 1
    10    5   12 1
    11    8   34 1
    12    8   35 1
    13    9   10 2
    14    9   11 1
    15    9   12 1
    16    9   13 1
    17   13   14 1
    18   14   15 1
    19   14   36 1
    20   14   37 1
    21   15   16 1
    22   15   17 1
    23   15   38 1
    24   16   21 1
    25   17   18 1
    26   17   19 1
    27   17   39 1
    28   18   40 1
    29   19   20 1
    30   19   21 1
    31   19   41 1
    32   20   42 1
    33   21   22 1
    34   21   43 1
    35   22   23 ar
    36   22   31 ar
    37   23   24 ar
    38   23   44 1
    39   24   25 ar
    40   25   26 ar
    41   25   31 ar
    42   26   27 1
    43   26   28 ar
    44   27   45 1
    45   27   46 1
    46   28   29 ar
    47   29   30 ar
    48   29   47 1
    49   30   31 ar
@<TRIPOS>SUBSTRUCTURE
     1 ACP         1 GROUP 0 A     ****
@<TRIPOS>MOLECULE
[[5-(6-aminopurin-9-yl)-3,4-dihydroxy-tetrahydrofuran-2-yl]methoxy-oxido-phosphoryl]oxy-(phosphonomethyl)phosphinate
   47    49     1     0     0
SMALL
USER_CHARGES

@<TRIPOS>ATOM
      1 PG         -5.1795    3.7648    2.4395 P.3       1 ACP         1.6478
      2 O1G        -6.6777    3.8102    2.4175 O.2       1 ACP        -0.9103
      3 O2G        -4.4654    3.7116    0.9913 O.3       1 ACP        -0.7989
      4 O3G        -4.5359    2.5092    3.2263 O.3       1 ACP        -0.7989
      5 PB         -2.5690    5.3798    3.3921 P.3       1 ACP         1.4947
      6 O1B        -2.0647    4.2016    4.1928 O.co2     1 ACP        -0.8554
      7 O2B        -2.2979    6.8091    3.8010 O.co2     1 ACP        -0.8554
      8 C3B        -4.4019    5.1902    3.2328 C.3       1 ACP        -0.6550
      9 PA         -0.7382    5.0055    1.0868 P.3       1 ACP         1.5921
     10 O1A         0.1355    6.1779    1.4774 O.co2     1 ACP        -0.8561
     11 O2A        -0.9749    4.6722   -0.3702 O.co2     1 ACP        -0.8561
     12 O3A        -2.1880    5.1734    1.8200 O.3       1 ACP        -0.8166
     13 O5'        -0.2059    3.6558    1.8419 O.3       1 ACP        -0.5737
     14 C5'        -0.8811    2.4285    1.6206 C.3       1 ACP         0.2197
     15 C4'        -0.1994    1.3333    2.4288 C.3       1 ACP         0.0944
     16 O4'        -1.1285    0.2356    2.5840 O.3       1 ACP        -0.4017
     17 C3'         1.0324    0.7610    1.7344 C.3       1 ACP         0.0859
     18 O3'         1.9175    0.2377    2.7247 O.3       1 ACP        -0.5941
     19 C2'         0.4468   -0.3802    0.9263 C.3       1 ACP         0.0924
     20 O2'         1.3993   -1.3703    0.5961 O.3       1 ACP        -0.5928
     21 C1'        -0.6159   -0.9100    1.8769 C.3       1 ACP         0.3967
     22 N9         -1.7127   -1.6108    1.2130 N.pl3     1 ACP        -0.6763
     23 C8         -2.0877   -2.9101    1.4304 C.ar      1 ACP         0.5586
     24 N7         -3.1152   -3.2613    0.6857 N.2       1 ACP        -0.5795
     25 C5         -3.4186   -2.1409   -0.0462 C.ar      1 ACP        -0.2116
     26 C6         -4.3953   -1.8809   -1.0023 C.ar      1 ACP         0.7185
     27 N6         -5.3118   -2.8767   -1.3812 N.pl3     1 ACP        -0.9442
     28 N1         -4.4538   -0.6507   -1.5667 N.ar      1 ACP        -0.8040
     29 C2         -3.5442    0.2679   -1.1609 C.ar      1 ACP         0.6560
     30 N3         -2.5561    0.1361   -0.2491 N.ar      1 ACP        -0.7058
     31 C4         -2.5568   -1.1019    0.2674 C.ar      1 ACP         0.5729
     32 HOG2       -4.6627    2.9610    0.3916 H         1 ACP         0.4440
     33 HOG3       -4.7427    1.6004    2.9210 H         1 ACP         0.4440
     34 H3B1       -4.7463    6.0891    2.7091 H         1 ACP         0.1084
     35 H3B2       -4.7980    5.2436    4.2533 H         1 ACP         0.1084
     36 H5'1       -1.9255    2.5383    1.9294 H         1 ACP         0.0281
     37 H5'2       -0.8472    2.1934    0.5521 H         1 ACP         0.0281
     38 H4'         0.0403    1.7078    3.4343 H         1 ACP         0.1082
     39 H3'         1.5906    1.4859    1.1353 H         1 ACP         0.0650
     40 HO3'        2.6839   -0.1150    2.2479 H         1 ACP         0.4300
     41 H2'        -0.0017    0.0018    0.0005 H         1 ACP         0.0785
     42 HO2'        2.0953   -0.9375    0.0709 H         1 ACP         0.4275
     43 H1'        -0.1998   -1.6319    2.6178 H         1 ACP         0.1009
     44 H8         -1.5778   -3.5473    2.1399 H         1 ACP         0.1067
     45 HN61       -5.2294   -3.7965   -0.9914 H         1 ACP         0.4213
     46 HN62       -5.9774   -2.6837   -2.1055 H         1 ACP         0.4213
     47 H2         -3.6201    1.2414   -1.6336 H         1 ACP         0.0365
@<TRIPOS>BOND
     1    1    2 2
     2    1    3 1
     3    1    4 1
     4    1    8 1
     5    3   32 1
     6    4   33 1
     7    5    6 2
     8    5    7 1
     9    5    8 1
    10    5   12 1
    11    8   34 1
    12    8   35 1
    13    9   10 2
    14    9   11 1
    15    9   12 1
    16    9   13 1
    17   13   14 1
    18   14   15 1
    19   14   36 1
    20   14   37 1
    21   15   16 1
    22   15   17 1
    23   15   38 1
    24   16   21 1
    25   17   18 1
    26   17   19 1
    27   17   39 1
    28   18   40 1
    29   19   20 1
    30   19   21 1
    31   19   41 1
    32   20   42 1
    33   21   22 1
    34   21   43 1
    35   22   23 ar
    36   22   31 ar
    37   23   24 ar
    38   23   44 1
    39   24   25 ar
    40   25   26 ar
    41   25   31 ar
    42   26   27 1
    43   26   28 ar
    44   27   45 1
    45   27   46 1
    46   28   29 ar
    47   29   30 ar
    48   29   47 1
    49   30   31 ar
@<TRIPOS>SUBSTRUCTURE
     1 ACP         1 GROUP 0 A     ****
@<TRIPOS>MOLECULE
[[5-(6-aminopurin-9-yl)-3,4-dihydroxy-tetrahydrofuran-2-yl]methoxy-oxido-phosphoryl]oxy-(phosphonomethyl)phosphinate
   47    49     1     0     0
SMALL
USER_CHARGES

@<TRIPOS>ATOM
      1 PG         -5.1795    3.7648    2.4395 P.3       1 ACP         1.6478
      2 O1G        -6.6777    3.8102    2.4175 O.2       1 ACP        -0.9103
      3 O2G        -4.4654    3.7116    0.9913 O.3       1 ACP        -0.7989
      4 O3G        -4.5359    2.5092    3.2263 O.3       1 ACP        -0.7989
      5 PB         -2.5690    5.3798    3.3921 P.3       1 ACP         1.4947
      6 O1B        -2.0647    4.2016    4.1928 O.co2     1 ACP        -0.8554
      7 O2B        -2.2979    6.8091    3.8010 O.co2     1 ACP        -0.8554
      8 C3B        -4.4019    5.1902    3.2328 C.3       1 ACP        -0.6550
      9 PA         -0.7382    5.0055    1.0868 P.3       1 ACP         1.5921
     10 O1A         0.1355    6.1779    1.4774 O.co2     1 ACP        -0.8561
     11 O2A        -0.9749    4.6722   -0.3702 O.co2     1 ACP        -0.8561
     12 O3A        -2.1880    5.1734    1.8200 O.3       1 ACP        -0.8166
     13 O5'        -0.2059    3.6558    1.8419 O.3       1 ACP        -0.5737
     14 C5'        -0.8811    2.4285    1.6206 C.3       1 ACP         0.2197
     15 C4'        -0.1994    1.3333    2.4288 C.3       1 ACP         0.0944
     16 O4'        -1.1285    0.2356    2.5840 O.3       1 ACP        -0.4017
     17 C3'         1.0324    0.7610    1.7344 C.3       1 ACP         0.0859
     18 O3'         1.9175    0.2377    2.7247 O.3       1 ACP        -0.5941
     19 C2'         0.4468   -0.3802    0.9263 C.3       1 ACP         0.0924
     20 O2'         1.3993   -1.3703    0.5961 O.3       1 ACP        -0.5928
     21 C1'        -0.6159   -0.9100    1.8769 C.3       1 ACP         0.3967
     22 N9         -1.7127   -1.6108    1.2130 N.pl3     1 ACP        -0.6763
     23 C8         -2.8641   -1.0399    0.7392 C.ar      1 ACP         0.5586
     24 N7         -3.6659   -1.9257    0.1858 N.2       1 ACP        -0.5795
     25 C5         -3.0053   -3.1223    0.3069 C.ar      1 ACP        -0.2116
     26 C6         -3.3321   -4.4178   -0.0813 C.ar      1 ACP         0.7185
     27 N6         -4.5476   -4.6866   -0.7335 N.pl3     1 ACP        -0.9442
     28 N1         -2.4608   -5.4225    0.1773 N.ar      1 ACP        -0.8040
     29 C2         -1.3053   -5.1020    0.8081 C.ar      1 ACP         0.6560
     30 N3         -0.8788   -3.8921    1.2315 N.ar      1 ACP        -0.7058
     31 C4         -1.7870   -2.9477    0.9438 C.ar      1 ACP         0.5729
     32 HOG2       -4.6627    2.9610    0.3916 H         1 ACP         0.4440
     33 HOG3       -4.7427    1.6004    2.9210 H         1 ACP         0.4440
     34 H3B1       -4.7463    6.0891    2.7091 H         1 ACP         0.1084
     35 H3B2       -4.7980    5.2436    4.2533 H         1 ACP         0.1084
     36 H5'1       -1.9255    2.5383    1.9294 H         1 ACP         0.0281
     37 H5'2       -0.8472    2.1934    0.5521 H         1 ACP         0.0281
     38 H4'         0.0403    1.7078    3.4343 H         1 ACP         0.1082
     39 H3'         1.5906    1.4859    1.1353 H         1 ACP         0.0650
     40 HO3'        2.6839   -0.1150    2.2479 H         1 ACP         0.4300
     41 H2'        -0.0017    0.0018    0.0005 H         1 ACP         0.0785
     42 HO2'        2.0953   -0.9375    0.0709 H         1 ACP         0.4275
     43 H1'        -0.1998   -1.6319    2.6178 H         1 ACP         0.1009
     44 H8         -3.0609    0.0200    0.8250 H         1 ACP         0.1067
     45 HN61       -5.2046   -3.9433   -0.8775 H         1 ACP         0.4213
     46 HN62       -4.7849   -5.6332   -0.9625 H         1 ACP         0.4213
     47 H2         -0.6318   -5.9307    0.9993 H         1 ACP         0.0365
@<TRIPOS>BOND
     1    1    2 2
     2    1    3 1
     3    1    4 1
     4    1    8 1
     5    3   32 1
     6    4   33 1
     7    5    6 2
     8    5    7 1
     9    5    8 1
    10    5   12 1
    11    8   34 1
    12    8   35 1
    13    9   10 2
    14    9   11 1
    15    9   12 1
    16    9   13 1
    17   13   14 1
    18   14   15 1
    19   14   36 1
    20   14   37 1
    21   15   16 1
    22   15   17 1
    23   15   38 1
    24   16   21 1
    25   17   18 1
    26   17   19 1
    27   17   39 1
    28   18   40 1
    29   19   20 1
    30   19   21 1
    31   19   41 1
    32   20   42 1
    33   21   22 1
    34   21   43 1
    35   22   23 ar
    36   22   31 ar
    37   23   24 ar
    38   23   44 1
    39   24   25 ar
    40   25   26 ar
    41   25   31 ar
    42   26   27 1
    43   26   28 ar
    44   27   45 1
    45   27   46 1
    46   28   29 ar
    47   29   30 ar
    48   29   47 1
    49   30   31 ar
@<TRIPOS>SUBSTRUCTURE
     1 ACP         1 GROUP 0 A     ****
@<TRIPOS>MOLECULE
[[5-(6-aminopurin-9-yl)-3,4-dihydroxy-tetrahydrofuran-2-yl]methoxy-oxido-phosphoryl]oxy-(phosphonomethyl)phosphinate
   47    49     1     0     0
SMALL
USER_CHARGES

@<TRIPOS>ATOM
      1 PG         -3.5616    3.4381   -2.4765 P.3       1 ACP         1.6478
      2 O1G        -2.6505    4.0780   -3.4804 O.2       1 ACP        -0.9103
      3 O2G        -2.8556    2.3958   -1.4638 O.3       1 ACP        -0.7989
      4 O3G        -4.7903    2.5919   -3.0962 O.3       1 ACP        -0.7989
      5 PB         -3.4601    5.7409   -0.2367 P.3       1 ACP         1.4947
      6 O1B        -4.4871    6.5492    0.5220 O.co2     1 ACP        -0.8554
      7 O2B        -2.3625    6.3886   -1.0487 O.co2     1 ACP        -0.8554
      8 C3B        -4.3829    4.6032   -1.3659 C.3       1 ACP        -0.6550
      9 PA         -2.0037    4.7529    2.1525 P.3       1 ACP         1.5921
     10 O1A        -2.9381    5.3267    3.1957 O.co2     1 ACP        -0.8561
     11 O2A        -0.6728    5.4124    1.8637 O.co2     1 ACP        -0.8561
     12 O3A        -2.8235    4.6072    0.7474 O.3       1 ACP        -0.8166
     13 O5'        -1.7337    3.1724    2.4754 O.3       1 ACP        -0.5737
     14 C5'        -0.8811    2.4285    1.6206 C.3       1 ACP         0.2197
     15 C4'        -0.1994    1.3333    2.4288 C.3       1 ACP         0.0944
     16 O4'        -1.1285    0.2356    2.5840 O.3       1 ACP        -0.4017
     17 C3'         1.0324    0.7610    1.7344 C.3       1 ACP         0.0859
     18 O3'         1.9175    0.2377    2.7247 O.3       1 ACP        -0.5941
     19 C2'         0.4468   -0.3802    0.9263 C.3       1 ACP         0.0924
     20 O2'         1.3993   -1.3703    0.5961 O.3       1 ACP        -0.5928
     21 C1'        -0.6159   -0.9100    1.8769 C.3       1 ACP         0.3967
     22 N9         -1.7127   -1.6108    1.2130 N.pl3     1 ACP        -0.6763
     23 C8         -2.8641   -1.0399    0.7392 C.ar      1 ACP         0.5586
     24 N7         -3.6659   -1.9257    0.1858 N.2       1 ACP        -0.5795
     25 C5         -3.0053   -3.1223    0.3069 C.ar      1 ACP        -0.2116
     26 C6         -3.3321   -4.4178   -0.0813 C.ar      1 ACP         0.7185
     27 N6         -4.5476   -4.6866   -0.7335 N.pl3     1 ACP        -0.9442
     28 N1         -2.4608   -5.4225    0.1773 N.ar      1 ACP        -0.8040
     29 C2         -1.3053   -5.1020    0.8081 C.ar      1 ACP         0.6560
     30 N3         -0.8788   -3.8921    1.2315 N.ar      1 ACP        -0.7058
     31 C4         -1.7870   -2.9477    0.9438 C.ar      1 ACP         0.5729
     32 HOG2       -2.4054    1.6062   -1.8325 H         1 ACP         0.4440
     33 HOG3       -4.5947    1.8283   -3.6799 H         1 ACP         0.4440
     34 H3B1       -5.0212    5.2502   -1.9780 H         1 ACP         0.1084
     35 H3B2       -5.0474    4.0164   -0.7214 H         1 ACP         0.1084
     36 H5'1       -1.4802    1.9929    0.8148 H         1 ACP         0.0281
     37 H5'2       -0.1370    3.1043    1.1873 H         1 ACP         0.0281
     38 H4'         0.0403    1.7078    3.4343 H         1 ACP         0.1082
     39 H3'         1.5906    1.4859    1.1353 H         1 ACP         0.0650
     40 HO3'        2.6839   -0.1150    2.2479 H         1 ACP         0.4300
     41 H2'        -0.0017    0.0018    0.0005 H         1 ACP         0.0785
     42 HO2'        2.0953   -0.9375    0.0709 H         1 ACP         0.4275
     43 H1'        -0.1998   -1.6319    2.6178 H         1 ACP         0.1009
     44 H8         -3.0609    0.0200    0.8250 H         1 ACP         0.1067
     45 HN61       -5.2046   -3.9433   -0.8775 H         1 ACP         0.4213
     46 HN62       -4.7849   -5.6332   -0.9625 H         1 ACP         0.4213
     47 H2         -0.6318   -5.9307    0.9993 H         1 ACP         0.0365
@<TRIPOS>BOND
     1    1    2 2
     2    1    3 1
     3    1    4 1
     4    1    8 1
     5    3   32 1
     6    4   33 1
     7    5    6 2
     8    5    7 1
     9    5    8 1
    10    5   12 1
    11    8   34 1
    12    8   35 1
    13    9   10 2
    14    9   11 1
    15    9   12 1
    16    9   13 1
    17   13   14 1
    18   14   15 1
    19   14   36 1
    20   14   37 1
    21   15   16 1
    22   15   17 1
    23   15   38 1
    24   16   21 1
    25   17   18 1
    26   17   19 1
    27   17   39 1
    28   18   40 1
    29   19   20 1
    30   19   21 1
    31   19   41 1
    32   20   42 1
    33   21   22 1
    34   21   43 1
    35   22   23 ar
    36   22   31 ar
    37   23   24 ar
    38   23   44 1
    39   24   25 ar
    40   25   26 ar
    41   25   31 ar
    42   26   27 1
    43   26   28 ar
    44   27   45 1
    45   27   46 1
    46   28   29 ar
    47   29   30 ar
    48   29   47 1
    49   30   31 ar
@<TRIPOS>SUBSTRUCTURE
     1 ACP         1 GROUP 0 A     ****
@<TRIPOS>MOLECULE
[[5-(6-aminopurin-9-yl)-3,4-dihydroxy-tetrahydrofuran-2-yl]methoxy-oxido-phosphoryl]oxy-(phosphonomethyl)phosphinate
   47    49     1     0     0
SMALL
USER_CHARGES

@<TRIPOS>ATOM
      1 PG         -4.4153    5.2463    3.7561 P.3       1 ACP         1.6478
      2 O1G        -3.7846    3.8875    3.6995 O.2       1 ACP        -0.9103
      3 O2G        -4.9009    5.7256    5.2206 O.3       1 ACP        -0.7989
      4 O3G        -5.7309    5.4382    2.8384 O.3       1 ACP        -0.7989
      5 PB         -2.6081    6.6806    1.5185 P.3       1 ACP         1.4947
      6 O1B        -1.7739    7.9390    1.4541 O.co2     1 ACP        -0.8554
      7 O2B        -3.7207    6.3985    0.5355 O.co2     1 ACP        -0.8554
      8 C3B        -3.3368    6.5919    3.2162 C.3       1 ACP        -0.6550
      9 PA         -0.4662    4.8323    0.6228 P.3       1 ACP         1.5921
     10 O1A         0.6572    5.8459    0.5874 O.co2     1 ACP        -0.8561
     11 O2A        -1.1249    4.3667   -0.6576 O.co2     1 ACP        -0.8561
     12 O3A        -1.6280    5.3822    1.6306 O.3       1 ACP        -0.8166
     13 O5'         0.0182    3.5132    1.4596 O.3       1 ACP        -0.5737
     14 C5'        -0.8811    2.4285    1.6206 C.3       1 ACP         0.2197
     15 C4'        -0.1994    1.3333    2.4288 C.3       1 ACP         0.0944
     16 O4'        -1.1285    0.2356    2.5840 O.3       1 ACP        -0.4017
     17 C3'         1.0324    0.7610    1.7344 C.3       1 ACP         0.0859
     18 O3'         1.9175    0.2377    2.7247 O.3       1 ACP        -0.5941
     19 C2'         0.4468   -0.3802    0.9263 C.3       1 ACP         0.0924
     20 O2'         1.3993   -1.3703    0.5961 O.3       1 ACP        -0.5928
     21 C1'        -0.6159   -0.9100    1.8769 C.3       1 ACP         0.3967
     22 N9         -1.7127   -1.6108    1.2130 N.pl3     1 ACP        -0.6763
     23 C8         -1.7712   -2.9546    0.9544 C.ar      1 ACP         0.5586
     24 N7         -2.8883   -3.2948    0.3462 N.2       1 ACP        -0.5795
     25 C5         -3.5834   -2.1202    0.2043 C.ar      1 ACP        -0.2116
     26 C6         -4.8225   -1.8251   -0.3554 C.ar      1 ACP         0.7185
     27 N6         -5.6154   -2.8394   -0.9189 N.pl3     1 ACP        -0.9442
     28 N1         -5.2589   -0.5425   -0.3507 N.ar      1 ACP        -0.8040
     29 C2         -4.4510    0.3913    0.2069 C.ar      1 ACP         0.6560
     30 N3         -3.2368    0.2296    0.7767 N.ar      1 ACP        -0.7058
     31 C4         -2.8684   -1.0596    0.7376 C.ar      1 ACP         0.5729
     32 HOG2       -5.5720    5.1919    5.6968 H         1 ACP         0.4440
     33 HOG3       -6.5112    4.8665    3.0010 H         1 ACP         0.4440
     34 H3B1       -3.8865    7.5305    3.3498 H         1 ACP         0.1084
     35 H3B2       -2.4873    6.6181    3.9080 H         1 ACP         0.1084
     36 H5'1       -1.7769    2.7852    2.1386 H         1 ACP         0.0281
     37 H5'2       -1.1652    2.0544    0.6320 H         1 ACP         0.0281
     38 H4'         0.0403    1.7078    3.4343 H         1 ACP         0.1082
     39 H3'         1.5906    1.4859    1.1353 H         1 ACP         0.0650
     40 HO3'        2.6839   -0.1150    2.2479 H         1 ACP         0.4300
     41 H2'        -0.0017    0.0018    0.0005 H         1 ACP         0.0785
     42 HO2'        2.0953   -0.9375    0.0709 H         1 ACP         0.4275
     43 H1'        -0.1998   -1.6319    2.6178 H         1 ACP         0.1009
     44 H8         -0.9745   -3.6312    1.2318 H         1 ACP         0.1067
     45 HN61       -5.2619   -3.7766   -0.9586 H         1 ACP         0.4213
     46 HN62       -6.4834   -2.5990   -1.3590 H         1 ACP         0.4213
     47 H2         -4.8317    1.4071    0.1930 H         1 ACP         0.0365
@<TRIPOS>BOND
     1    1    2 2
     2    1    3 1
     3    1    4 1
     4    1    8 1
     5    3   32 1
     6    4   33 1
     7    5    6 2
     8    5    7 1
     9    5    8 1
    10    5   12 1
    11    8   34 1
    12    8   35 1
    13    9   10 2
    14    9   11 1
    15    9   12 1
    16    9   13 1
    17   13   14 1
    18   14   15 1
    19   14   36 1
    20   14   37 1
    21   15   16 1
    22   15   17 1
    23   15   38 1
    24   16   21 1
    25   17   18 1
    26   17   19 1
    27   17   39 1
    28   18   40 1
    29   19   20 1
    30   19   21 1
    31   19   41 1
    32   20   42 1
    33   21   22 1
    34   21   43 1
    35   22   23 ar
    36   22   31 ar
    37   23   24 ar
    38   23   44 1
    39   24   25 ar
    40   25   26 ar
    41   25   31 ar
    42   26   27 1
    43   26   28 ar
    44   27   45 1
    45   27   46 1
    46   28   29 ar
    47   29   30 ar
    48   29   47 1
    49   30   31 ar
@<TRIPOS>SUBSTRUCTURE
     1 ACP         1 GROUP 0 A     ****
@<TRIPOS>MOLECULE
[[5-(6-aminopurin-9-yl)-3,4-dihydroxy-tetrahydrofuran-2-yl]methoxy-oxido-phosphoryl]oxy-(phosphonomethyl)phosphinate
   47    49     1     0     0
SMALL
USER_CHARGES

@<TRIPOS>ATOM
      1 PG         -2.7472    3.4816   -2.4218 P.3       1 ACP         1.6478
      2 O1G        -1.4580    4.1647   -2.0777 O.2       1 ACP        -0.9103
      3 O2G        -2.7532    1.8766   -2.2365 O.3       1 ACP        -0.7989
      4 O3G        -3.2581    3.6902   -3.9401 O.3       1 ACP        -0.7989
      5 PB         -4.2277    3.8513    0.4069 P.3       1 ACP         1.4947
      6 O1B        -4.1002    2.3803    0.7284 O.co2     1 ACP        -0.8554
      7 O2B        -5.3894    4.6862    0.8937 O.co2     1 ACP        -0.8554
      8 C3B        -4.1621    4.0180   -1.4340 C.3       1 ACP        -0.6550
      9 PA         -2.0037    4.7529    2.1525 P.3       1 ACP         1.5921
     10 O1A        -2.9381    5.3267    3.1957 O.co2     1 ACP        -0.8561
     11 O2A        -0.6728    5.4124    1.8637 O.co2     1 ACP        -0.8561
     12 O3A        -2.8235    4.6072    0.7474 O.3       1 ACP        -0.8166
     13 O5'        -1.7337    3.1724    2.4754 O.3       1 ACP        -0.5737
     14 C5'        -0.8811    2.4285    1.6206 C.3       1 ACP         0.2197
     15 C4'        -0.1994    1.3333    2.4288 C.3       1 ACP         0.0944
     16 O4'        -1.1285    0.2356    2.5840 O.3       1 ACP        -0.4017
     17 C3'         1.0324    0.7610    1.7344 C.3       1 ACP         0.0859
     18 O3'         1.9175    0.2377    2.7247 O.3       1 ACP        -0.5941
     19 C2'         0.4468   -0.3802    0.9263 C.3       1 ACP         0.0924
     20 O2'         1.3993   -1.3703    0.5961 O.3       1 ACP        -0.5928
     21 C1'        -0.6159   -0.9100    1.8769 C.3       1 ACP         0.3967
     22 N9         -1.7127   -1.6108    1.2130 N.pl3     1 ACP        -0.6763
     23 C8         -2.8641   -1.0399    0.7392 C.ar      1 ACP         0.5586
     24 N7         -3.6659   -1.9257    0.1858 N.2       1 ACP        -0.5795
     25 C5         -3.0053   -3.1223    0.3069 C.ar      1 ACP        -0.2116
     26 C6         -3.3321   -4.4178   -0.0813 C.ar      1 ACP         0.7185
     27 N6         -4.5476   -4.6866   -0.7335 N.pl3     1 ACP        -0.9442
     28 N1         -2.4608   -5.4225    0.1773 N.ar      1 ACP        -0.8040
     29 C2         -1.3053   -5.1020    0.8081 C.ar      1 ACP         0.6560
     30 N3         -0.8788   -3.8921    1.2315 N.ar      1 ACP        -0.7058
     31 C4         -1.7870   -2.9477    0.9438 C.ar      1 ACP         0.5729
     32 HOG2       -2.1165    1.3366   -2.7512 H         1 ACP         0.4440
     33 HOG3       -2.6877    3.3891   -4.6790 H         1 ACP         0.4440
     34 H3B1       -4.3245    5.0822   -1.6390 H         1 ACP         0.1084
     35 H3B2       -5.0392    3.4820   -1.8142 H         1 ACP         0.1084
     36 H5'1       -1.4802    1.9929    0.8148 H         1 ACP         0.0281
     37 H5'2       -0.1370    3.1043    1.1873 H         1 ACP         0.0281
     38 H4'         0.0403    1.7078    3.4343 H         1 ACP         0.1082
     39 H3'         1.5906    1.4859    1.1353 H         1 ACP         0.0650
     40 HO3'        2.6839   -0.1150    2.2479 H         1 ACP         0.4300
     41 H2'        -0.0017    0.0018    0.0005 H         1 ACP         0.0785
     42 HO2'        2.0953   -0.9375    0.0709 H         1 ACP         0.4275
     43 H1'        -0.1998   -1.6319    2.6178 H         1 ACP         0.1009
     44 H8         -3.0609    0.0200    0.8250 H         1 ACP         0.1067
     45 HN61       -5.2046   -3.9433   -0.8775 H         1 ACP         0.4213
     46 HN62       -4.7849   -5.6332   -0.9625 H         1 ACP         0.4213
     47 H2         -0.6318   -5.9307    0.9993 H         1 ACP         0.0365
@<TRIPOS>BOND
     1    1    2 2
     2    1    3 1
     3    1    4 1
     4    1    8 1
     5    3   32 1
     6    4   33 1
     7    5    6 2
     8    5    7 1
     9    5    8 1
    10    5   12 1
    11    8   34 1
    12    8   35 1
    13    9   10 2
    14    9   11 1
    15    9   12 1
    16    9   13 1
    17   13   14 1
    18   14   15 1
    19   14   36 1
    20   14   37 1
    21   15   16 1
    22   15   17 1
    23   15   38 1
    24   16   21 1
    25   17   18 1
    26   17   19 1
    27   17   39 1
    28   18   40 1
    29   19   20 1
    30   19   21 1
    31   19   41 1
    32   20   42 1
    33   21   22 1
    34   21   43 1
    35   22   23 ar
    36   22   31 ar
    37   23   24 ar
    38   23   44 1
    39   24   25 ar
    40   25   26 ar
    41   25   31 ar
    42   26   27 1
    43   26   28 ar
    44   27   45 1
    45   27   46 1
    46   28   29 ar
    47   29   30 ar
    48   29   47 1
    49   30   31 ar
@<TRIPOS>SUBSTRUCTURE
     1 ACP         1 GROUP 0 A     ****
@<TRIPOS>MOLECULE
[[5-(6-aminopurin-9-yl)-3,4-dihydroxy-tetrahydrofuran-2-yl]methoxy-oxido-phosphoryl]oxy-(phosphonomethyl)phosphinate
   47    49     1     0     0
SMALL
USER_CHARGES

@<TRIPOS>ATOM
      1 PG         -0.5637    5.2639    6.1262 P.3       1 ACP         1.6478
      2 O1G         0.4857    6.3204    6.2992 O.2       1 ACP        -0.9103
      3 O2G        -1.1627    4.6499    7.4952 O.3       1 ACP        -0.7989
      4 O3G        -0.1017    3.9581    5.2948 O.3       1 ACP        -0.7989
      5 PB         -1.9902    6.4636    3.5078 P.3       1 ACP         1.4947
      6 O1B        -1.0936    7.6800    3.5092 O.co2     1 ACP        -0.8554
      7 O2B        -3.4144    6.5112    3.0049 O.co2     1 ACP        -0.8554
      8 C3B        -2.0384    5.8159    5.2396 C.3       1 ACP        -0.6550
      9 PA         -0.5788    5.0300    1.3263 P.3       1 ACP         1.5921
     10 O1A         0.5648    6.0081    1.1646 O.co2     1 ACP        -0.8561
     11 O2A        -1.7187    5.0058    0.3313 O.co2     1 ACP        -0.8561
     12 O3A        -1.2048    5.2086    2.8242 O.3       1 ACP        -0.8166
     13 O5'         0.0182    3.5132    1.4596 O.3       1 ACP        -0.5737
     14 C5'        -0.8811    2.4285    1.6206 C.3       1 ACP         0.2197
     15 C4'        -0.1994    1.3333    2.4288 C.3       1 ACP         0.0944
     16 O4'        -1.1285    0.2356    2.5840 O.3       1 ACP        -0.4017
     17 C3'         1.0324    0.7610    1.7344 C.3       1 ACP         0.0859
     18 O3'         1.9175    0.2377    2.7247 O.3       1 ACP        -0.5941
     19 C2'         0.4468   -0.3802    0.9263 C.3       1 ACP         0.0924
     20 O2'         1.3993   -1.3703    0.5961 O.3       1 ACP        -0.5928
     21 C1'        -0.6159   -0.9100    1.8769 C.3       1 ACP         0.3967
     22 N9         -1.7127   -1.6108    1.2130 N.pl3     1 ACP        -0.6763
     23 C8         -2.8641   -1.0399    0.7392 C.ar      1 ACP         0.5586
     24 N7         -3.6659   -1.9257    0.1858 N.2       1 ACP        -0.5795
     25 C5         -3.0053   -3.1223    0.3069 C.ar      1 ACP        -0.2116
     26 C6         -3.3321   -4.4178   -0.0813 C.ar      1 ACP         0.7185
     27 N6         -4.5476   -4.6866   -0.7335 N.pl3     1 ACP        -0.9442
     28 N1         -2.4608   -5.4225    0.1773 N.ar      1 ACP        -0.8040
     29 C2         -1.3053   -5.1020    0.8081 C.ar      1 ACP         0.6560
     30 N3         -0.8788   -3.8921    1.2315 N.ar      1 ACP        -0.7058
     31 C4         -1.7870   -2.9477    0.9438 C.ar      1 ACP         0.5729
     32 HOG2       -0.5544    4.2032    8.1217 H         1 ACP         0.4440
     33 HOG3        0.6464    3.4205    5.6315 H         1 ACP         0.4440
     34 H3B1       -2.7461    4.9794    5.2212 H         1 ACP         0.1084
     35 H3B2       -2.4961    6.6084    5.8426 H         1 ACP         0.1084
     36 H5'1       -1.7769    2.7852    2.1386 H         1 ACP         0.0281
     37 H5'2       -1.1652    2.0544    0.6320 H         1 ACP         0.0281
     38 H4'         0.0403    1.7078    3.4343 H         1 ACP         0.1082
     39 H3'         1.5906    1.4859    1.1353 H         1 ACP         0.0650
     40 HO3'        2.6839   -0.1150    2.2479 H         1 ACP         0.4300
     41 H2'        -0.0017    0.0018    0.0005 H         1 ACP         0.0785
     42 HO2'        2.0953   -0.9375    0.0709 H         1 ACP         0.4275
     43 H1'        -0.1998   -1.6319    2.6178 H         1 ACP         0.1009
     44 H8         -3.0609    0.0200    0.8250 H         1 ACP         0.1067
     45 HN61       -5.2046   -3.9433   -0.8775 H         1 ACP         0.4213
     46 HN62       -4.7849   -5.6332   -0.9625 H         1 ACP         0.4213
     47 H2         -0.6318   -5.9307    0.9993 H         1 ACP         0.0365
@<TRIPOS>BOND
     1    1    2 2
     2    1    3 1
     3    1    4 1
     4    1    8 1
     5    3   32 1
     6    4   33 1
     7    5    6 2
     8    5    7 1
     9    5    8 1
    10    5   12 1
    11    8   34 1
    12    8   35 1
    13    9   10 2
    14    9   11 1
    15    9   12 1
    16    9   13 1
    17   13   14 1
    18   14   15 1
    19   14   36 1
    20   14   37 1
    21   15   16 1
    22   15   17 1
    23   15   38 1
    24   16   21 1
    25   17   18 1
    26   17   19 1
    27   17   39 1
    28   18   40 1
    29   19   20 1
    30   19   21 1
    31   19   41 1
    32   20   42 1
    33   21   22 1
    34   21   43 1
    35   22   23 ar
    36   22   31 ar
    37   23   24 ar
    38   23   44 1
    39   24   25 ar
    40   25   26 ar
    41   25   31 ar
    42   26   27 1
    43   26   28 ar
    44   27   45 1
    45   27   46 1
    46   28   29 ar
    47   29   30 ar
    48   29   47 1
    49   30   31 ar
@<TRIPOS>SUBSTRUCTURE
     1 ACP         1 GROUP 0 A     ****
@<TRIPOS>MOLECULE
[[5-(6-aminopurin-9-yl)-3,4-dihydroxy-tetrahydrofuran-2-yl]methoxy-oxido-phosphoryl]oxy-(phosphonomethyl)phosphinate
   47    49     1     0     0
SMALL
USER_CHARGES

@<TRIPOS>ATOM
      1 PG          1.0047    6.7331    1.3525 P.3       1 ACP         1.6478
      2 O1G         1.1604    5.2753    1.6653 O.2       1 ACP        -0.9103
      3 O2G         0.9348    7.1020   -0.2189 O.3       1 ACP        -0.7989
      4 O3G         2.1768    7.6916    1.9155 O.3       1 ACP        -0.7989
      5 PB         -2.1970    6.9070    1.5741 P.3       1 ACP         1.4947
      6 O1B        -2.3467    7.0709    0.0793 O.co2     1 ACP        -0.8554
      7 O2B        -3.1586    7.5362    2.5554 O.co2     1 ACP        -0.8554
      8 C3B        -0.4973    7.4830    2.0213 C.3       1 ACP        -0.6550
      9 PA         -2.9648    4.0418    1.6589 P.3       1 ACP         1.5921
     10 O1A        -3.0690    3.8284    0.1642 O.co2     1 ACP        -0.8561
     11 O2A        -4.2106    4.1925    2.5047 O.co2     1 ACP        -0.8561
     12 O3A        -1.9968    5.3287    1.9318 O.3       1 ACP        -0.8166
     13 O5'        -2.0402    2.8619    2.3132 O.3       1 ACP        -0.5737
     14 C5'        -0.8811    2.4285    1.6206 C.3       1 ACP         0.2197
     15 C4'        -0.1994    1.3333    2.4288 C.3       1 ACP         0.0944
     16 O4'        -1.1285    0.2356    2.5840 O.3       1 ACP        -0.4017
     17 C3'         1.0324    0.7610    1.7344 C.3       1 ACP         0.0859
     18 O3'         1.9175    0.2377    2.7247 O.3       1 ACP        -0.5941
     19 C2'         0.4468   -0.3802    0.9263 C.3       1 ACP         0.0924
     20 O2'         1.3993   -1.3703    0.5961 O.3       1 ACP        -0.5928
     21 C1'        -0.6159   -0.9100    1.8769 C.3       1 ACP         0.3967
     22 N9         -1.7127   -1.6108    1.2130 N.pl3     1 ACP        -0.6763
     23 C8         -1.7712   -2.9546    0.9544 C.ar      1 ACP         0.5586
     24 N7         -2.8883   -3.2948    0.3462 N.2       1 ACP        -0.5795
     25 C5         -3.5834   -2.1202    0.2043 C.ar      1 ACP        -0.2116
     26 C6         -4.8225   -1.8251   -0.3554 C.ar      1 ACP         0.7185
     27 N6         -5.6154   -2.8394   -0.9189 N.pl3     1 ACP        -0.9442
     28 N1         -5.2589   -0.5425   -0.3507 N.ar      1 ACP        -0.8040
     29 C2         -4.4510    0.3913    0.2069 C.ar      1 ACP         0.6560
     30 N3         -3.2368    0.2296    0.7767 N.ar      1 ACP        -0.7058
     31 C4         -2.8684   -1.0596    0.7376 C.ar      1 ACP         0.5729
     32 HOG2        1.6939    6.8708   -0.7954 H         1 ACP         0.4440
     33 HOG3        3.0994    7.5378    1.6202 H         1 ACP         0.4440
     34 H3B1       -0.4421    7.4167    3.1138 H         1 ACP         0.1084
     35 H3B2       -0.4649    8.5478    1.7639 H         1 ACP         0.1084
     36 H5'1       -1.1771    2.0504    0.6370 H         1 ACP         0.0281
     37 H5'2       -0.2083    3.2816    1.4878 H         1 ACP         0.0281
     38 H4'         0.0403    1.7078    3.4343 H         1 ACP         0.1082
     39 H3'         1.5906    1.4859    1.1353 H         1 ACP         0.0650
     40 HO3'        2.1521    0.9800    3.3017 H         1 ACP         0.4300
     41 H2'        -0.0017    0.0018    0.0005 H         1 ACP         0.0785
     42 HO2'        0.9369   -2.0558    0.0825 H         1 ACP         0.4275
     43 H1'        -0.1998   -1.6319    2.6178 H         1 ACP         0.1009
     44 H8         -0.9745   -3.6312    1.2318 H         1 ACP         0.1067
     45 HN61       -5.2619   -3.7766   -0.9586 H         1 ACP         0.4213
     46 HN62       -6.4834   -2.5990   -1.3590 H         1 ACP         0.4213
     47 H2         -4.8317    1.4071    0.1930 H         1 ACP         0.0365
@<TRIPOS>BOND
     1    1    2 2
     2    1    3 1
     3    1    4 1
     4    1    8 1
     5    3   32 1
     6    4   33 1
     7    5    6 2
     8    5    7 1
     9    5    8 1
    10    5   12 1
    11    8   34 1
    12    8   35 1
    13    9   10 2
    14    9   11 1
    15    9   12 1
    16    9   13 1
    17   13   14 1
    18   14   15 1
    19   14   36 1
    20   14   37 1
    21   15   16 1
    22   15   17 1
    23   15   38 1
    24   16   21 1
    25   17   18 1
    26   17   19 1
    27   17   39 1
    28   18   40 1
    29   19   20 1
    30   19   21 1
    31   19   41 1
    32   20   42 1
    33   21   22 1
    34   21   43 1
    35   22   23 ar
    36   22   31 ar
    37   23   24 ar
    38   23   44 1
    39   24   25 ar
    40   25   26 ar
    41   25   31 ar
    42   26   27 1
    43   26   28 ar
    44   27   45 1
    45   27   46 1
    46   28   29 ar
    47   29   30 ar
    48   29   47 1
    49   30   31 ar
@<TRIPOS>SUBSTRUCTURE
     1 ACP         1 GROUP 0 A     ****
@<TRIPOS>MOLECULE
[[5-(6-aminopurin-9-yl)-3,4-dihydroxy-tetrahydrofuran-2-yl]methoxy-oxido-phosphoryl]oxy-(phosphonomethyl)phosphinate
   47    49     1     0     0
SMALL
USER_CHARGES

@<TRIPOS>ATOM
      1 PG         -4.3923    7.2708    2.6780 P.3       1 ACP         1.6478
      2 O1G        -3.9800    8.6867    2.9469 O.2       1 ACP        -0.9103
      3 O2G        -4.3587    6.8209    1.1266 O.3       1 ACP        -0.7989
      4 O3G        -5.8865    6.8820    3.1535 O.3       1 ACP        -0.7989
      5 PB         -1.5478    5.8637    3.1865 P.3       1 ACP         1.4947
      6 O1B        -1.0502    4.7226    4.0433 O.co2     1 ACP        -0.8554
      7 O2B        -0.9515    7.2501    3.2631 O.co2     1 ACP        -0.8554
      8 C3B        -3.3645    6.0273    3.4923 C.3       1 ACP        -0.6550
      9 PA         -0.4662    4.8323    0.6228 P.3       1 ACP         1.5921
     10 O1A         0.6572    5.8459    0.5874 O.co2     1 ACP        -0.8561
     11 O2A        -1.1249    4.3667   -0.6576 O.co2     1 ACP        -0.8561
     12 O3A        -1.6280    5.3822    1.6306 O.3       1 ACP        -0.8166
     13 O5'         0.0182    3.5132    1.4596 O.3       1 ACP        -0.5737
     14 C5'        -0.8811    2.4285    1.6206 C.3       1 ACP         0.2197
     15 C4'        -0.1994    1.3333    2.4288 C.3       1 ACP         0.0944
     16 O4'        -1.1285    0.2356    2.5840 O.3       1 ACP        -0.4017
     17 C3'         1.0324    0.7610    1.7344 C.3       1 ACP         0.0859
     18 O3'         1.9175    0.2377    2.7247 O.3       1 ACP        -0.5941
     19 C2'         0.4468   -0.3802    0.9263 C.3       1 ACP         0.0924
     20 O2'         1.3993   -1.3703    0.5961 O.3       1 ACP        -0.5928
     21 C1'        -0.6159   -0.9100    1.8769 C.3       1 ACP         0.3967
     22 N9         -1.7127   -1.6108    1.2130 N.pl3     1 ACP        -0.6763
     23 C8         -2.8641   -1.0399    0.7392 C.ar      1 ACP         0.5586
     24 N7         -3.6659   -1.9257    0.1858 N.2       1 ACP        -0.5795
     25 C5         -3.0053   -3.1223    0.3069 C.ar      1 ACP        -0.2116
     26 C6         -3.3321   -4.4178   -0.0813 C.ar      1 ACP         0.7185
     27 N6         -4.5476   -4.6866   -0.7335 N.pl3     1 ACP        -0.9442
     28 N1         -2.4608   -5.4225    0.1773 N.ar      1 ACP        -0.8040
     29 C2         -1.3053   -5.1020    0.8081 C.ar      1 ACP         0.6560
     30 N3         -0.8788   -3.8921    1.2315 N.ar      1 ACP        -0.7058
     31 C4         -1.7870   -2.9477    0.9438 C.ar      1 ACP         0.5729
     32 HOG2       -4.9191    7.3010    0.4805 H         1 ACP         0.4440
     33 HOG3       -6.6479    7.3703    2.7743 H         1 ACP         0.4440
     34 H3B1       -3.4693    6.1681    4.5740 H         1 ACP         0.1084
     35 H3B2       -3.7972    5.0490    3.2541 H         1 ACP         0.1084
     36 H5'1       -1.7769    2.7852    2.1386 H         1 ACP         0.0281
     37 H5'2       -1.1652    2.0544    0.6320 H         1 ACP         0.0281
     38 H4'         0.0403    1.7078    3.4343 H         1 ACP         0.1082
     39 H3'         1.5906    1.4859    1.1353 H         1 ACP         0.0650
     40 HO3'        2.6839   -0.1150    2.2479 H         1 ACP         0.4300
     41 H2'        -0.0017    0.0018    0.0005 H         1 ACP         0.0785
     42 HO2'        2.0953   -0.9375    0.0709 H         1 ACP         0.4275
     43 H1'        -0.1998   -1.6319    2.6178 H         1 ACP         0.1009
     44 H8         -3.0609    0.0200    0.8250 H         1 ACP         0.1067
     45 HN61       -5.2046   -3.9433   -0.8775 H         1 ACP         0.4213
     46 HN62       -4.7849   -5.6332   -0.9625 H         1 ACP         0.4213
     47 H2         -0.6318   -5.9307    0.9993 H         1 ACP         0.0365
@<TRIPOS>BOND
     1    1    2 2
     2    1    3 1
     3    1    4 1
     4    1    8 1
     5    3   32 1
     6    4   33 1
     7    5    6 2
     8    5    7 1
     9    5    8 1
    10    5   12 1
    11    8   34 1
    12    8   35 1
    13    9   10 2
    14    9   11 1
    15    9   12 1
    16    9   13 1
    17   13   14 1
    18   14   15 1
    19   14   36 1
    20   14   37 1
    21   15   16 1
    22   15   17 1
    23   15   38 1
    24   16   21 1
    25   17   18 1
    26   17   19 1
    27   17   39 1
    28   18   40 1
    29   19   20 1
    30   19   21 1
    31   19   41 1
    32   20   42 1
    33   21   22 1
    34   21   43 1
    35   22   23 ar
    36   22   31 ar
    37   23   24 ar
    38   23   44 1
    39   24   25 ar
    40   25   26 ar
    41   25   31 ar
    42   26   27 1
    43   26   28 ar
    44   27   45 1
    45   27   46 1
    46   28   29 ar
    47   29   30 ar
    48   29   47 1
    49   30   31 ar
@<TRIPOS>SUBSTRUCTURE
     1 ACP         1 GROUP 0 A     ****
@<TRIPOS>MOLECULE
[[5-(6-aminopurin-9-yl)-3,4-dihydroxy-tetrahydrofuran-2-yl]methoxy-oxido-phosphoryl]oxy-(phosphonomethyl)phosphinate
   47    49     1     0     0
SMALL
USER_CHARGES

@<TRIPOS>ATOM
      1 PG         -2.3324    6.5209    4.7167 P.3       1 ACP         1.6478
      2 O1G        -1.4158    5.3371    4.7920 O.2       1 ACP        -0.9103
      3 O2G        -1.6062    7.9639    4.7450 O.3       1 ACP        -0.7989
      4 O3G        -3.4287    6.6247    5.8986 O.3       1 ACP        -0.7989
      5 PB         -2.6081    6.6806    1.5185 P.3       1 ACP         1.4947
      6 O1B        -1.7739    7.9390    1.4541 O.co2     1 ACP        -0.8554
      7 O2B        -3.7207    6.3985    0.5355 O.co2     1 ACP        -0.8554
      8 C3B        -3.3368    6.5919    3.2162 C.3       1 ACP        -0.6550
      9 PA         -0.4662    4.8323    0.6228 P.3       1 ACP         1.5921
     10 O1A         0.6572    5.8459    0.5874 O.co2     1 ACP        -0.8561
     11 O2A        -1.1249    4.3667   -0.6576 O.co2     1 ACP        -0.8561
     12 O3A        -1.6280    5.3822    1.6306 O.3       1 ACP        -0.8166
     13 O5'         0.0182    3.5132    1.4596 O.3       1 ACP        -0.5737
     14 C5'        -0.8811    2.4285    1.6206 C.3       1 ACP         0.2197
     15 C4'        -0.1994    1.3333    2.4288 C.3       1 ACP         0.0944
     16 O4'        -1.1285    0.2356    2.5840 O.3       1 ACP        -0.4017
     17 C3'         1.0324    0.7610    1.7344 C.3       1 ACP         0.0859
     18 O3'         1.9175    0.2377    2.7247 O.3       1 ACP        -0.5941
     19 C2'         0.4468   -0.3802    0.9263 C.3       1 ACP         0.0924
     20 O2'         1.3993   -1.3703    0.5961 O.3       1 ACP        -0.5928
     21 C1'        -0.6159   -0.9100    1.8769 C.3       1 ACP         0.3967
     22 N9         -1.7127   -1.6108    1.2130 N.pl3     1 ACP        -0.6763
     23 C8         -1.7712   -2.9546    0.9544 C.ar      1 ACP         0.5586
     24 N7         -2.8883   -3.2948    0.3462 N.2       1 ACP        -0.5795
     25 C5         -3.5834   -2.1202    0.2043 C.ar      1 ACP        -0.2116
     26 C6         -4.8225   -1.8251   -0.3554 C.ar      1 ACP         0.7185
     27 N6         -5.6154   -2.8394   -0.9189 N.pl3     1 ACP        -0.9442
     28 N1         -5.2589   -0.5425   -0.3507 N.ar      1 ACP        -0.8040
     29 C2         -4.4510    0.3913    0.2069 C.ar      1 ACP         0.6560
     30 N3         -3.2368    0.2296    0.7767 N.ar      1 ACP        -0.7058
     31 C4         -2.8684   -1.0596    0.7376 C.ar      1 ACP         0.5729
     32 HOG2       -1.0587    8.2050    5.5223 H         1 ACP         0.4440
     33 HOG3       -3.1211    6.6893    6.8277 H         1 ACP         0.4440
     34 H3B1       -3.9875    5.7102    3.2113 H         1 ACP         0.1084
     35 H3B2       -3.9879    7.4688    3.3083 H         1 ACP         0.1084
     36 H5'1       -1.7769    2.7852    2.1386 H         1 ACP         0.0281
     37 H5'2       -1.1652    2.0544    0.6320 H         1 ACP         0.0281
     38 H4'         0.0403    1.7078    3.4343 H         1 ACP         0.1082
     39 H3'         1.5906    1.4859    1.1353 H         1 ACP         0.0650
     40 HO3'        2.6839   -0.1150    2.2479 H         1 ACP         0.4300
     41 H2'        -0.0017    0.0018    0.0005 H         1 ACP         0.0785
     42 HO2'        2.0953   -0.9375    0.0709 H         1 ACP         0.4275
     43 H1'        -0.1998   -1.6319    2.6178 H         1 ACP         0.1009
     44 H8         -0.9745   -3.6312    1.2318 H         1 ACP         0.1067
     45 HN61       -5.2619   -3.7766   -0.9586 H         1 ACP         0.4213
     46 HN62       -6.4834   -2.5990   -1.3590 H         1 ACP         0.4213
     47 H2         -4.8317    1.4071    0.1930 H         1 ACP         0.0365
@<TRIPOS>BOND
     1    1    2 2
     2    1    3 1
     3    1    4 1
     4    1    8 1
     5    3   32 1
     6    4   33 1
     7    5    6 2
     8    5    7 1
     9    5    8 1
    10    5   12 1
    11    8   34 1
    12    8   35 1
    13    9   10 2
    14    9   11 1
    15    9   12 1
    16    9   13 1
    17   13   14 1
    18   14   15 1
    19   14   36 1
    20   14   37 1
    21   15   16 1
    22   15   17 1
    23   15   38 1
    24   16   21 1
    25   17   18 1
    26   17   19 1
    27   17   39 1
    28   18   40 1
    29   19   20 1
    30   19   21 1
    31   19   41 1
    32   20   42 1
    33   21   22 1
    34   21   43 1
    35   22   23 ar
    36   22   31 ar
    37   23   24 ar
    38   23   44 1
    39   24   25 ar
    40   25   26 ar
    41   25   31 ar
    42   26   27 1
    43   26   28 ar
    44   27   45 1
    45   27   46 1
    46   28   29 ar
    47   29   30 ar
    48   29   47 1
    49   30   31 ar
@<TRIPOS>SUBSTRUCTURE
     1 ACP         1 GROUP 0 A     ****
@<TRIPOS>MOLECULE
[[5-(6-aminopurin-9-yl)-3,4-dihydroxy-tetrahydrofuran-2-yl]methoxy-oxido-phosphoryl]oxy-(phosphonomethyl)phosphinate
   47    49     1     0     0
SMALL
USER_CHARGES

@<TRIPOS>ATOM
      1 PG          1.7521    6.4731    3.8432 P.3       1 ACP         1.6478
      2 O1G         2.5507    7.7224    4.0641 O.2       1 ACP        -0.9103
      3 O2G         2.4641    5.1018    4.3149 O.3       1 ACP        -0.7989
      4 O3G         1.3379    6.1777    2.3099 O.3       1 ACP        -0.7989
      5 PB         -1.0071    5.0129    4.6078 P.3       1 ACP         1.4947
      6 O1B        -2.2048    5.3567    5.4627 O.co2     1 ACP        -0.8554
      7 O2B        -0.2033    3.7502    4.8148 O.co2     1 ACP        -0.8554
      8 C3B         0.1678    6.4376    4.7117 C.3       1 ACP        -0.6550
      9 PA         -2.5401    4.4095    2.1396 P.3       1 ACP         1.5921
     10 O1A        -2.3764    4.8319    0.6956 O.co2     1 ACP        -0.8561
     11 O2A        -3.8732    4.5590    2.8399 O.co2     1 ACP        -0.8561
     12 O3A        -1.4003    5.1652    3.0325 O.3       1 ACP        -0.8166
     13 O5'        -2.0402    2.8619    2.3132 O.3       1 ACP        -0.5737
     14 C5'        -0.8811    2.4285    1.6206 C.3       1 ACP         0.2197
     15 C4'        -0.1994    1.3333    2.4288 C.3       1 ACP         0.0944
     16 O4'        -1.1285    0.2356    2.5840 O.3       1 ACP        -0.4017
     17 C3'         1.0324    0.7610    1.7344 C.3       1 ACP         0.0859
     18 O3'         1.9175    0.2377    2.7247 O.3       1 ACP        -0.5941
     19 C2'         0.4468   -0.3802    0.9263 C.3       1 ACP         0.0924
     20 O2'         1.3993   -1.3703    0.5961 O.3       1 ACP        -0.5928
     21 C1'        -0.6159   -0.9100    1.8769 C.3       1 ACP         0.3967
     22 N9         -1.7127   -1.6108    1.2130 N.pl3     1 ACP        -0.6763
     23 C8         -2.8641   -1.0399    0.7392 C.ar      1 ACP         0.5586
     24 N7         -3.6659   -1.9257    0.1858 N.2       1 ACP        -0.5795
     25 C5         -3.0053   -3.1223    0.3069 C.ar      1 ACP        -0.2116
     26 C6         -3.3321   -4.4178   -0.0813 C.ar      1 ACP         0.7185
     27 N6         -4.5476   -4.6866   -0.7335 N.pl3     1 ACP        -0.9442
     28 N1         -2.4608   -5.4225    0.1773 N.ar      1 ACP        -0.8040
     29 C2         -1.3053   -5.1020    0.8081 C.ar      1 ACP         0.6560
     30 N3         -0.8788   -3.8921    1.2315 N.ar      1 ACP        -0.7058
     31 C4         -1.7870   -2.9477    0.9438 C.ar      1 ACP         0.5729
     32 HOG2        3.3197    4.8466    3.9089 H         1 ACP         0.4440
     33 HOG3        2.0453    6.0644    1.6400 H         1 ACP         0.4440
     34 H3B1        0.3728    6.5726    5.7797 H         1 ACP         0.1084
     35 H3B2       -0.3977    7.3164    4.3815 H         1 ACP         0.1084
     36 H5'1       -1.1771    2.0504    0.6370 H         1 ACP         0.0281
     37 H5'2       -0.2083    3.2816    1.4878 H         1 ACP         0.0281
     38 H4'         0.0403    1.7078    3.4343 H         1 ACP         0.1082
     39 H3'         1.5906    1.4859    1.1353 H         1 ACP         0.0650
     40 HO3'        2.6839   -0.1150    2.2479 H         1 ACP         0.4300
     41 H2'        -0.0017    0.0018    0.0005 H         1 ACP         0.0785
     42 HO2'        0.9369   -2.0558    0.0825 H         1 ACP         0.4275
     43 H1'        -0.1998   -1.6319    2.6178 H         1 ACP         0.1009
     44 H8         -3.0609    0.0200    0.8250 H         1 ACP         0.1067
     45 HN61       -5.2046   -3.9433   -0.8775 H         1 ACP         0.4213
     46 HN62       -4.7849   -5.6332   -0.9625 H         1 ACP         0.4213
     47 H2         -0.6318   -5.9307    0.9993 H         1 ACP         0.0365
@<TRIPOS>BOND
     1    1    2 2
     2    1    3 1
     3    1    4 1
     4    1    8 1
     5    3   32 1
     6    4   33 1
     7    5    6 2
     8    5    7 1
     9    5    8 1
    10    5   12 1
    11    8   34 1
    12    8   35 1
    13    9   10 2
    14    9   11 1
    15    9   12 1
    16    9   13 1
    17   13   14 1
    18   14   15 1
    19   14   36 1
    20   14   37 1
    21   15   16 1
    22   15   17 1
    23   15   38 1
    24   16   21 1
    25   17   18 1
    26   17   19 1
    27   17   39 1
    28   18   40 1
    29   19   20 1
    30   19   21 1
    31   19   41 1
    32   20   42 1
    33   21   22 1
    34   21   43 1
    35   22   23 ar
    36   22   31 ar
    37   23   24 ar
    38   23   44 1
    39   24   25 ar
    40   25   26 ar
    41   25   31 ar
    42   26   27 1
    43   26   28 ar
    44   27   45 1
    45   27   46 1
    46   28   29 ar
    47   29   30 ar
    48   29   47 1
    49   30   31 ar
@<TRIPOS>SUBSTRUCTURE
     1 ACP         1 GROUP 0 A     ****
@<TRIPOS>MOLECULE
[[5-(6-aminopurin-9-yl)-3,4-dihydroxy-tetrahydrofuran-2-yl]methoxy-oxido-phosphoryl]oxy-(phosphonomethyl)phosphinate
   47    49     1     0     0
SMALL
USER_CHARGES

@<TRIPOS>ATOM
      1 PG          4.2564    3.2924   -0.8953 P.3       1 ACP         1.6478
      2 O1G         5.2382    2.2017   -1.2017 O.2       1 ACP        -0.9103
      3 O2G         4.8331    4.7973   -1.0089 O.3       1 ACP        -0.7989
      4 O3G         3.6076    3.2452    0.5833 O.3       1 ACP        -0.7989
      5 PB          1.4508    4.5630   -1.8140 P.3       1 ACP         1.4947
      6 O1B         0.4337    4.2597   -2.8897 O.co2     1 ACP        -0.8554
      7 O2B         2.0973    5.9217   -1.6745 O.co2     1 ACP        -0.8554
      8 C3B         2.8104    3.3199   -1.9787 C.3       1 ACP        -0.6550
      9 PA         -0.1841    4.7788    0.6530 P.3       1 ACP         1.5921
     10 O1A        -1.5389    4.8251   -0.0199 O.co2     1 ACP        -0.8561
     11 O2A         0.4469    6.0397    1.2027 O.co2     1 ACP        -0.8561
     12 O3A         0.8774    4.0732   -0.3682 O.3       1 ACP        -0.8166
     13 O5'        -0.2059    3.6558    1.8419 O.3       1 ACP        -0.5737
     14 C5'        -0.8811    2.4285    1.6206 C.3       1 ACP         0.2197
     15 C4'        -0.1994    1.3333    2.4288 C.3       1 ACP         0.0944
     16 O4'        -1.1285    0.2356    2.5840 O.3       1 ACP        -0.4017
     17 C3'         1.0324    0.7610    1.7344 C.3       1 ACP         0.0859
     18 O3'         1.9175    0.2377    2.7247 O.3       1 ACP        -0.5941
     19 C2'         0.4468   -0.3802    0.9263 C.3       1 ACP         0.0924
     20 O2'         1.3993   -1.3703    0.5961 O.3       1 ACP        -0.5928
     21 C1'        -0.6159   -0.9100    1.8769 C.3       1 ACP         0.3967
     22 N9         -1.7127   -1.6108    1.2130 N.pl3     1 ACP        -0.6763
     23 C8         -2.8641   -1.0399    0.7392 C.ar      1 ACP         0.5586
     24 N7         -3.6659   -1.9257    0.1858 N.2       1 ACP        -0.5795
     25 C5         -3.0053   -3.1223    0.3069 C.ar      1 ACP        -0.2116
     26 C6         -3.3321   -4.4178   -0.0813 C.ar      1 ACP         0.7185
     27 N6         -4.5476   -4.6866   -0.7335 N.pl3     1 ACP        -0.9442
     28 N1         -2.4608   -5.4225    0.1773 N.ar      1 ACP        -0.8040
     29 C2         -1.3053   -5.1020    0.8081 C.ar      1 ACP         0.6560
     30 N3         -0.8788   -3.8921    1.2315 N.ar      1 ACP        -0.7058
     31 C4         -1.7870   -2.9477    0.9438 C.ar      1 ACP         0.5729
     32 HOG2        5.5854    5.0621   -0.4380 H         1 ACP         0.4440
     33 HOG3        4.1987    3.3055    1.3637 H         1 ACP         0.4440
     34 H3B1        3.1707    3.4128   -3.0094 H         1 ACP         0.1084
     35 H3B2        2.3299    2.3384   -1.8956 H         1 ACP         0.1084
     36 H5'1       -1.9255    2.5383    1.9294 H         1 ACP         0.0281
     37 H5'2       -0.8472    2.1934    0.5521 H         1 ACP         0.0281
     38 H4'         0.0403    1.7078    3.4343 H         1 ACP         0.1082
     39 H3'         1.5906    1.4859    1.1353 H         1 ACP         0.0650
     40 HO3'        2.6839   -0.1150    2.2479 H         1 ACP         0.4300
     41 H2'        -0.0017    0.0018    0.0005 H         1 ACP         0.0785
     42 HO2'        2.0953   -0.9375    0.0709 H         1 ACP         0.4275
     43 H1'        -0.1998   -1.6319    2.6178 H         1 ACP         0.1009
     44 H8         -3.0609    0.0200    0.8250 H         1 ACP         0.1067
     45 HN61       -5.2046   -3.9433   -0.8775 H         1 ACP         0.4213
     46 HN62       -4.7849   -5.6332   -0.9625 H         1 ACP         0.4213
     47 H2         -0.6318   -5.9307    0.9993 H         1 ACP         0.0365
@<TRIPOS>BOND
     1    1    2 2
     2    1    3 1
     3    1    4 1
     4    1    8 1
     5    3   32 1
     6    4   33 1
     7    5    6 2
     8    5    7 1
     9    5    8 1
    10    5   12 1
    11    8   34 1
    12    8   35 1
    13    9   10 2
    14    9   11 1
    15    9   12 1
    16    9   13 1
    17   13   14 1
    18   14   15 1
    19   14   36 1
    20   14   37 1
    21   15   16 1
    22   15   17 1
    23   15   38 1
    24   16   21 1
    25   17   18 1
    26   17   19 1
    27   17   39 1
    28   18   40 1
    29   19   20 1
    30   19   21 1
    31   19   41 1
    32   20   42 1
    33   21   22 1
    34   21   43 1
    35   22   23 ar
    36   22   31 ar
    37   23   24 ar
    38   23   44 1
    39   24   25 ar
    40   25   26 ar
    41   25   31 ar
    42   26   27 1
    43   26   28 ar
    44   27   45 1
    45   27   46 1
    46   28   29 ar
    47   29   30 ar
    48   29   47 1
    49   30   31 ar
@<TRIPOS>SUBSTRUCTURE
     1 ACP         1 GROUP 0 A     ****
@<TRIPOS>MOLECULE
[[5-(6-aminopurin-9-yl)-3,4-dihydroxy-tetrahydrofuran-2-yl]methoxy-oxido-phosphoryl]oxy-(phosphonomethyl)phosphinate
   47    49     1     0     0
SMALL
USER_CHARGES

@<TRIPOS>ATOM
      1 PG         -2.9930    4.3587    5.7200 P.3       1 ACP         1.6478
      2 O1G        -4.4668    4.4751    5.4712 O.2       1 ACP        -0.9103
      3 O2G        -2.2503    3.1552    4.9389 O.3       1 ACP        -0.7989
      4 O3G        -2.5665    4.1310    7.2613 O.3       1 ACP        -0.7989
      5 PB         -1.9902    6.4636    3.5078 P.3       1 ACP         1.4947
      6 O1B        -1.0936    7.6800    3.5092 O.co2     1 ACP        -0.8554
      7 O2B        -3.4144    6.5112    3.0049 O.co2     1 ACP        -0.8554
      8 C3B        -2.0384    5.8159    5.2396 C.3       1 ACP        -0.6550
      9 PA         -0.5788    5.0300    1.3263 P.3       1 ACP         1.5921
     10 O1A         0.5648    6.0081    1.1646 O.co2     1 ACP        -0.8561
     11 O2A        -1.7187    5.0058    0.3313 O.co2     1 ACP        -0.8561
     12 O3A        -1.2048    5.2086    2.8242 O.3       1 ACP        -0.8166
     13 O5'         0.0182    3.5132    1.4596 O.3       1 ACP        -0.5737
     14 C5'        -0.8811    2.4285    1.6206 C.3       1 ACP         0.2197
     15 C4'        -0.1994    1.3333    2.4288 C.3       1 ACP         0.0944
     16 O4'        -1.1285    0.2356    2.5840 O.3       1 ACP        -0.4017
     17 C3'         1.0324    0.7610    1.7344 C.3       1 ACP         0.0859
     18 O3'         1.9175    0.2377    2.7247 O.3       1 ACP        -0.5941
     19 C2'         0.4468   -0.3802    0.9263 C.3       1 ACP         0.0924
     20 O2'         1.3993   -1.3703    0.5961 O.3       1 ACP        -0.5928
     21 C1'        -0.6159   -0.9100    1.8769 C.3       1 ACP         0.3967
     22 N9         -1.7127   -1.6108    1.2130 N.pl3     1 ACP        -0.6763
     23 C8         -1.7712   -2.9546    0.9544 C.ar      1 ACP         0.5586
     24 N7         -2.8883   -3.2948    0.3462 N.2       1 ACP        -0.5795
     25 C5         -3.5834   -2.1202    0.2043 C.ar      1 ACP        -0.2116
     26 C6         -4.8225   -1.8251   -0.3554 C.ar      1 ACP         0.7185
     27 N6         -5.6154   -2.8394   -0.9189 N.pl3     1 ACP        -0.9442
     28 N1         -5.2589   -0.5425   -0.3507 N.ar      1 ACP        -0.8040
     29 C2         -4.4510    0.3913    0.2069 C.ar      1 ACP         0.6560
     30 N3         -3.2368    0.2296    0.7767 N.ar      1 ACP        -0.7058
     31 C4         -2.8684   -1.0596    0.7376 C.ar      1 ACP         0.5729
     32 HOG2       -2.5377    2.2323    5.1049 H         1 ACP         0.4440
     33 HOG3       -2.8957    3.3366    7.7331 H         1 ACP         0.4440
     34 H3B1       -2.3799    6.6539    5.8577 H         1 ACP         0.1084
     35 H3B2       -0.9958    5.6201    5.5148 H         1 ACP         0.1084
     36 H5'1       -1.7769    2.7852    2.1386 H         1 ACP         0.0281
     37 H5'2       -1.1652    2.0544    0.6320 H         1 ACP         0.0281
     38 H4'         0.0403    1.7078    3.4343 H         1 ACP         0.1082
     39 H3'         1.5906    1.4859    1.1353 H         1 ACP         0.0650
     40 HO3'        2.6839   -0.1150    2.2479 H         1 ACP         0.4300
     41 H2'        -0.0017    0.0018    0.0005 H         1 ACP         0.0785
     42 HO2'        2.0953   -0.9375    0.0709 H         1 ACP         0.4275
     43 H1'        -0.1998   -1.6319    2.6178 H         1 ACP         0.1009
     44 H8         -0.9745   -3.6312    1.2318 H         1 ACP         0.1067
     45 HN61       -5.2619   -3.7766   -0.9586 H         1 ACP         0.4213
     46 HN62       -6.4834   -2.5990   -1.3590 H         1 ACP         0.4213
     47 H2         -4.8317    1.4071    0.1930 H         1 ACP         0.0365
@<TRIPOS>BOND
     1    1    2 2
     2    1    3 1
     3    1    4 1
     4    1    8 1
     5    3   32 1
     6    4   33 1
     7    5    6 2
     8    5    7 1
     9    5    8 1
    10    5   12 1
    11    8   34 1
    12    8   35 1
    13    9   10 2
    14    9   11 1
    15    9   12 1
    16    9   13 1
    17   13   14 1
    18   14   15 1
    19   14   36 1
    20   14   37 1
    21   15   16 1
    22   15   17 1
    23   15   38 1
    24   16   21 1
    25   17   18 1
    26   17   19 1
    27   17   39 1
    28   18   40 1
    29   19   20 1
    30   19   21 1
    31   19   41 1
    32   20   42 1
    33   21   22 1
    34   21   43 1
    35   22   23 ar
    36   22   31 ar
    37   23   24 ar
    38   23   44 1
    39   24   25 ar
    40   25   26 ar
    41   25   31 ar
    42   26   27 1
    43   26   28 ar
    44   27   45 1
    45   27   46 1
    46   28   29 ar
    47   29   30 ar
    48   29   47 1
    49   30   31 ar
@<TRIPOS>SUBSTRUCTURE
     1 ACP         1 GROUP 0 A     ****
@<TRIPOS>MOLECULE
[[5-(6-aminopurin-9-yl)-3,4-dihydroxy-tetrahydrofuran-2-yl]methoxy-oxido-phosphoryl]oxy-(phosphonomethyl)phosphinate
   47    49     1     0     0
SMALL
USER_CHARGES

@<TRIPOS>ATOM
      1 PG         -4.9464    5.3115    1.2300 P.3       1 ACP         1.6478
      2 O1G        -5.9425    5.8006    2.2379 O.2       1 ACP        -0.9103
      3 O2G        -5.5692    4.8054   -0.1722 O.3       1 ACP        -0.7989
      4 O3G        -4.0295    4.0703    1.7079 O.3       1 ACP        -0.7989
      5 PB         -2.3949    6.2027   -0.5094 P.3       1 ACP         1.4947
      6 O1B        -1.5919    7.4731   -0.6679 O.co2     1 ACP        -0.8554
      7 O2B        -3.0352    5.5007   -1.6845 O.co2     1 ACP        -0.8554
      8 C3B        -3.7315    6.5488    0.7212 C.3       1 ACP        -0.6550
      9 PA         -0.0885    4.4445    0.1193 P.3       1 ACP         1.5921
     10 O1A         0.9671    5.5276    0.1742 O.co2     1 ACP        -0.8561
     11 O2A        -0.1962    3.5335   -1.0842 O.co2     1 ACP        -0.8561
     12 O3A        -1.5478    5.1301    0.3800 O.3       1 ACP        -0.8166
     13 O5'         0.0182    3.5132    1.4596 O.3       1 ACP        -0.5737
     14 C5'        -0.8811    2.4285    1.6206 C.3       1 ACP         0.2197
     15 C4'        -0.1994    1.3333    2.4288 C.3       1 ACP         0.0944
     16 O4'        -1.1285    0.2356    2.5840 O.3       1 ACP        -0.4017
     17 C3'         1.0324    0.7610    1.7344 C.3       1 ACP         0.0859
     18 O3'         1.9175    0.2377    2.7247 O.3       1 ACP        -0.5941
     19 C2'         0.4468   -0.3802    0.9263 C.3       1 ACP         0.0924
     20 O2'         1.3993   -1.3703    0.5961 O.3       1 ACP        -0.5928
     21 C1'        -0.6159   -0.9100    1.8769 C.3       1 ACP         0.3967
     22 N9         -1.7127   -1.6108    1.2130 N.pl3     1 ACP        -0.6763
     23 C8         -1.7712   -2.9546    0.9544 C.ar      1 ACP         0.5586
     24 N7         -2.8883   -3.2948    0.3462 N.2       1 ACP        -0.5795
     25 C5         -3.5834   -2.1202    0.2043 C.ar      1 ACP        -0.2116
     26 C6         -4.8225   -1.8251   -0.3554 C.ar      1 ACP         0.7185
     27 N6         -5.6154   -2.8394   -0.9189 N.pl3     1 ACP        -0.9442
     28 N1         -5.2589   -0.5425   -0.3507 N.ar      1 ACP        -0.8040
     29 C2         -4.4510    0.3913    0.2069 C.ar      1 ACP         0.6560
     30 N3         -3.2368    0.2296    0.7767 N.ar      1 ACP        -0.7058
     31 C4         -2.8684   -1.0596    0.7376 C.ar      1 ACP         0.5729
     32 HOG2       -6.2065    4.0598   -0.1674 H         1 ACP         0.4440
     33 HOG3       -4.4641    3.2280    1.9604 H         1 ACP         0.4440
     34 H3B1       -4.2818    7.4091    0.3238 H         1 ACP         0.1084
     35 H3B2       -3.2211    6.8882    1.6297 H         1 ACP         0.1084
     36 H5'1       -1.7769    2.7852    2.1386 H         1 ACP         0.0281
     37 H5'2       -1.1652    2.0544    0.6320 H         1 ACP         0.0281
     38 H4'         0.0403    1.7078    3.4343 H         1 ACP         0.1082
     39 H3'         1.5906    1.4859    1.1353 H         1 ACP         0.0650
     40 HO3'        2.6839   -0.1150    2.2479 H         1 ACP         0.4300
     41 H2'        -0.0017    0.0018    0.0005 H         1 ACP         0.0785
     42 HO2'        2.0953   -0.9375    0.0709 H         1 ACP         0.4275
     43 H1'        -0.1998   -1.6319    2.6178 H         1 ACP         0.1009
     44 H8         -0.9745   -3.6312    1.2318 H         1 ACP         0.1067
     45 HN61       -5.2619   -3.7766   -0.9586 H         1 ACP         0.4213
     46 HN62       -6.4834   -2.5990   -1.3590 H         1 ACP         0.4213
     47 H2         -4.8317    1.4071    0.1930 H         1 ACP         0.0365
@<TRIPOS>BOND
     1    1    2 2
     2    1    3 1
     3    1    4 1
     4    1    8 1
     5    3   32 1
     6    4   33 1
     7    5    6 2
     8    5    7 1
     9    5    8 1
    10    5   12 1
    11    8   34 1
    12    8   35 1
    13    9   10 2
    14    9   11 1
    15    9   12 1
    16    9   13 1
    17   13   14 1
    18   14   15 1
    19   14   36 1
    20   14   37 1
    21   15   16 1
    22   15   17 1
    23   15   38 1
    24   16   21 1
    25   17   18 1
    26   17   19 1
    27   17   39 1
    28   18   40 1
    29   19   20 1
    30   19   21 1
    31   19   41 1
    32   20   42 1
    33   21   22 1
    34   21   43 1
    35   22   23 ar
    36   22   31 ar
    37   23   24 ar
    38   23   44 1
    39   24   25 ar
    40   25   26 ar
    41   25   31 ar
    42   26   27 1
    43   26   28 ar
    44   27   45 1
    45   27   46 1
    46   28   29 ar
    47   29   30 ar
    48   29   47 1
    49   30   31 ar
@<TRIPOS>SUBSTRUCTURE
     1 ACP         1 GROUP 0 A     ****
@<TRIPOS>MOLECULE
[[5-(6-aminopurin-9-yl)-3,4-dihydroxy-tetrahydrofuran-2-yl]methoxy-oxido-phosphoryl]oxy-(phosphonomethyl)phosphinate
   47    49     1     0     0
SMALL
USER_CHARGES

@<TRIPOS>ATOM
      1 PG         -0.9071    4.8482   -4.1625 P.3       1 ACP         1.6478
      2 O1G        -2.0213    5.4322   -3.3471 O.2       1 ACP        -0.9103
      3 O2G         0.2972    5.8639   -4.5202 O.3       1 ACP        -0.7989
      4 O3G        -1.3397    4.2512   -5.5999 O.3       1 ACP        -0.7989
      5 PB          0.8133    3.5976   -1.7529 P.3       1 ACP         1.4947
      6 O1B         1.8969    4.6386   -1.9130 O.co2     1 ACP        -0.8554
      7 O2B         1.1069    2.1933   -1.2780 O.co2     1 ACP        -0.8554
      8 C3B        -0.0583    3.4589   -3.3783 C.3       1 ACP        -0.6550
      9 PA         -0.4662    4.8323    0.6228 P.3       1 ACP         1.5921
     10 O1A        -1.9048    5.1484    0.9710 O.co2     1 ACP        -0.8561
     11 O2A         0.6070    5.8922    0.7447 O.co2     1 ACP        -0.8561
     12 O3A        -0.4219    4.2246   -0.8925 O.3       1 ACP        -0.8166
     13 O5'         0.0182    3.5132    1.4596 O.3       1 ACP        -0.5737
     14 C5'        -0.8811    2.4285    1.6206 C.3       1 ACP         0.2197
     15 C4'        -0.1994    1.3333    2.4288 C.3       1 ACP         0.0944
     16 O4'        -1.1285    0.2356    2.5840 O.3       1 ACP        -0.4017
     17 C3'         1.0324    0.7610    1.7344 C.3       1 ACP         0.0859
     18 O3'         1.9175    0.2377    2.7247 O.3       1 ACP        -0.5941
     19 C2'         0.4468   -0.3802    0.9263 C.3       1 ACP         0.0924
     20 O2'         1.3993   -1.3703    0.5961 O.3       1 ACP        -0.5928
     21 C1'        -0.6159   -0.9100    1.8769 C.3       1 ACP         0.3967
     22 N9         -1.7127   -1.6108    1.2130 N.pl3     1 ACP        -0.6763
     23 C8         -1.7712   -2.9546    0.9544 C.ar      1 ACP         0.5586
     24 N7         -2.8883   -3.2948    0.3462 N.2       1 ACP        -0.5795
     25 C5         -3.5834   -2.1202    0.2043 C.ar      1 ACP        -0.2116
     26 C6         -4.8225   -1.8251   -0.3554 C.ar      1 ACP         0.7185
     27 N6         -5.6154   -2.8394   -0.9189 N.pl3     1 ACP        -0.9442
     28 N1         -5.2589   -0.5425   -0.3507 N.ar      1 ACP        -0.8040
     29 C2         -4.4510    0.3913    0.2069 C.ar      1 ACP         0.6560
     30 N3         -3.2368    0.2296    0.7767 N.ar      1 ACP        -0.7058
     31 C4         -2.8684   -1.0596    0.7376 C.ar      1 ACP         0.5729
     32 HOG2        0.0980    6.6742   -5.0357 H         1 ACP         0.4440
     33 HOG3       -1.7546    4.8492   -6.2574 H         1 ACP         0.4440
     34 H3B1       -0.7897    2.6527   -3.2521 H         1 ACP         0.1084
     35 H3B2        0.6930    3.0998   -4.0909 H         1 ACP         0.1084
     36 H5'1       -1.7769    2.7852    2.1386 H         1 ACP         0.0281
     37 H5'2       -1.1652    2.0544    0.6320 H         1 ACP         0.0281
     38 H4'         0.0403    1.7078    3.4343 H         1 ACP         0.1082
     39 H3'         1.5906    1.4859    1.1353 H         1 ACP         0.0650
     40 HO3'        2.6839   -0.1150    2.2479 H         1 ACP         0.4300
     41 H2'        -0.0017    0.0018    0.0005 H         1 ACP         0.0785
     42 HO2'        2.0953   -0.9375    0.0709 H         1 ACP         0.4275
     43 H1'        -0.1998   -1.6319    2.6178 H         1 ACP         0.1009
     44 H8         -0.9745   -3.6312    1.2318 H         1 ACP         0.1067
     45 HN61       -5.2619   -3.7766   -0.9586 H         1 ACP         0.4213
     46 HN62       -6.4834   -2.5990   -1.3590 H         1 ACP         0.4213
     47 H2         -4.8317    1.4071    0.1930 H         1 ACP         0.0365
@<TRIPOS>BOND
     1    1    2 2
     2    1    3 1
     3    1    4 1
     4    1    8 1
     5    3   32 1
     6    4   33 1
     7    5    6 2
     8    5    7 1
     9    5    8 1
    10    5   12 1
    11    8   34 1
    12    8   35 1
    13    9   10 2
    14    9   11 1
    15    9   12 1
    16    9   13 1
    17   13   14 1
    18   14   15 1
    19   14   36 1
    20   14   37 1
    21   15   16 1
    22   15   17 1
    23   15   38 1
    24   16   21 1
    25   17   18 1
    26   17   19 1
    27   17   39 1
    28   18   40 1
    29   19   20 1
    30   19   21 1
    31   19   41 1
    32   20   42 1
    33   21   22 1
    34   21   43 1
    35   22   23 ar
    36   22   31 ar
    37   23   24 ar
    38   23   44 1
    39   24   25 ar
    40   25   26 ar
    41   25   31 ar
    42   26   27 1
    43   26   28 ar
    44   27   45 1
    45   27   46 1
    46   28   29 ar
    47   29   30 ar
    48   29   47 1
    49   30   31 ar
@<TRIPOS>SUBSTRUCTURE
     1 ACP         1 GROUP 0 A     ****
@<TRIPOS>MOLECULE
[[5-(6-aminopurin-9-yl)-3,4-dihydroxy-tetrahydrofuran-2-yl]methoxy-oxido-phosphoryl]oxy-(phosphonomethyl)phosphinate
   47    49     1     0     0
SMALL
USER_CHARGES

@<TRIPOS>ATOM
      1 PG          0.1604    5.9677   -1.2111 P.3       1 ACP         1.6478
      2 O1G        -0.3984    4.6361   -1.6135 O.2       1 ACP        -0.9103
      3 O2G         0.4704    6.9862   -2.4264 O.3       1 ACP        -0.7989
      4 O3G         1.5532    5.9165   -0.3944 O.3       1 ACP        -0.7989
      5 PB         -1.4708    6.3353    1.5337 P.3       1 ACP         1.4947
      6 O1B        -2.3506    7.4117    2.1260 O.co2     1 ACP        -0.8554
      7 O2B        -0.2513    5.8042    2.2510 O.co2     1 ACP        -0.8554
      8 C3B        -0.9172    6.9317   -0.1272 C.3       1 ACP        -0.6550
      9 PA         -3.0799    3.8626    1.8539 P.3       1 ACP         1.5921
     10 O1A        -3.7199    2.9140    0.8633 O.co2     1 ACP        -0.8561
     11 O2A        -3.8856    4.4438    2.9954 O.co2     1 ACP        -0.8561
     12 O3A        -2.3969    5.0932    1.0252 O.3       1 ACP        -0.8166
     13 O5'        -1.7337    3.1724    2.4754 O.3       1 ACP        -0.5737
     14 C5'        -0.8811    2.4285    1.6206 C.3       1 ACP         0.2197
     15 C4'        -0.1994    1.3333    2.4288 C.3       1 ACP         0.0944
     16 O4'        -1.1285    0.2356    2.5840 O.3       1 ACP        -0.4017
     17 C3'         1.0324    0.7610    1.7344 C.3       1 ACP         0.0859
     18 O3'         1.9175    0.2377    2.7247 O.3       1 ACP        -0.5941
     19 C2'         0.4468   -0.3802    0.9263 C.3       1 ACP         0.0924
     20 O2'         1.3993   -1.3703    0.5961 O.3       1 ACP        -0.5928
     21 C1'        -0.6159   -0.9100    1.8769 C.3       1 ACP         0.3967
     22 N9         -1.7127   -1.6108    1.2130 N.pl3     1 ACP        -0.6763
     23 C8         -2.8641   -1.0399    0.7392 C.ar      1 ACP         0.5586
     24 N7         -3.6659   -1.9257    0.1858 N.2       1 ACP        -0.5795
     25 C5         -3.0053   -3.1223    0.3069 C.ar      1 ACP        -0.2116
     26 C6         -3.3321   -4.4178   -0.0813 C.ar      1 ACP         0.7185
     27 N6         -4.5476   -4.6866   -0.7335 N.pl3     1 ACP        -0.9442
     28 N1         -2.4608   -5.4225    0.1773 N.ar      1 ACP        -0.8040
     29 C2         -1.3053   -5.1020    0.8081 C.ar      1 ACP         0.6560
     30 N3         -0.8788   -3.8921    1.2315 N.ar      1 ACP        -0.7058
     31 C4         -1.7870   -2.9477    0.9438 C.ar      1 ACP         0.5729
     32 HOG2        1.1127    6.7192   -3.1179 H         1 ACP         0.4440
     33 HOG3        2.3379    5.5084   -0.8183 H         1 ACP         0.4440
     34 H3B1       -0.4278    7.8953    0.0543 H         1 ACP         0.1084
     35 H3B2       -1.8338    7.1403   -0.6908 H         1 ACP         0.1084
     36 H5'1       -1.4802    1.9929    0.8148 H         1 ACP         0.0281
     37 H5'2       -0.1370    3.1043    1.1873 H         1 ACP         0.0281
     38 H4'         0.0403    1.7078    3.4343 H         1 ACP         0.1082
     39 H3'         1.5906    1.4859    1.1353 H         1 ACP         0.0650
     40 HO3'        2.6839   -0.1150    2.2479 H         1 ACP         0.4300
     41 H2'        -0.0017    0.0018    0.0005 H         1 ACP         0.0785
     42 HO2'        2.0953   -0.9375    0.0709 H         1 ACP         0.4275
     43 H1'        -0.1998   -1.6319    2.6178 H         1 ACP         0.1009
     44 H8         -3.0609    0.0200    0.8250 H         1 ACP         0.1067
     45 HN61       -5.2046   -3.9433   -0.8775 H         1 ACP         0.4213
     46 HN62       -4.7849   -5.6332   -0.9625 H         1 ACP         0.4213
     47 H2         -0.6318   -5.9307    0.9993 H         1 ACP         0.0365
@<TRIPOS>BOND
     1    1    2 2
     2    1    3 1
     3    1    4 1
     4    1    8 1
     5    3   32 1
     6    4   33 1
     7    5    6 2
     8    5    7 1
     9    5    8 1
    10    5   12 1
    11    8   34 1
    12    8   35 1
    13    9   10 2
    14    9   11 1
    15    9   12 1
    16    9   13 1
    17   13   14 1
    18   14   15 1
    19   14   36 1
    20   14   37 1
    21   15   16 1
    22   15   17 1
    23   15   38 1
    24   16   21 1
    25   17   18 1
    26   17   19 1
    27   17   39 1
    28   18   40 1
    29   19   20 1
    30   19   21 1
    31   19   41 1
    32   20   42 1
    33   21   22 1
    34   21   43 1
    35   22   23 ar
    36   22   31 ar
    37   23   24 ar
    38   23   44 1
    39   24   25 ar
    40   25   26 ar
    41   25   31 ar
    42   26   27 1
    43   26   28 ar
    44   27   45 1
    45   27   46 1
    46   28   29 ar
    47   29   30 ar
    48   29   47 1
    49   30   31 ar
@<TRIPOS>SUBSTRUCTURE
     1 ACP         1 GROUP 0 A     ****
@<TRIPOS>MOLECULE
[[5-(6-aminopurin-9-yl)-3,4-dihydroxy-tetrahydrofuran-2-yl]methoxy-oxido-phosphoryl]oxy-(phosphonomethyl)phosphinate
   47    49     1     0     0
SMALL
USER_CHARGES

@<TRIPOS>ATOM
      1 PG         -3.7109    8.1019    2.3856 P.3       1 ACP         1.6478
      2 O1G        -3.6159    7.9656    0.8958 O.2       1 ACP        -0.9103
      3 O2G        -5.1845    8.4321    2.9597 O.3       1 ACP        -0.7989
      4 O3G        -2.7833    9.2532    3.0366 O.3       1 ACP        -0.7989
      5 PB         -1.5478    5.8637    3.1865 P.3       1 ACP         1.4947
      6 O1B        -1.5377    4.6525    4.0901 O.co2     1 ACP        -0.8554
      7 O2B        -0.5412    6.9823    3.3248 O.co2     1 ACP        -0.8554
      8 C3B        -3.2317    6.6200    3.3020 C.3       1 ACP        -0.6550
      9 PA         -0.4662    4.8323    0.6228 P.3       1 ACP         1.5921
     10 O1A         0.6572    5.8459    0.5874 O.co2     1 ACP        -0.8561
     11 O2A        -1.1249    4.3667   -0.6576 O.co2     1 ACP        -0.8561
     12 O3A        -1.6280    5.3822    1.6306 O.3       1 ACP        -0.8166
     13 O5'         0.0182    3.5132    1.4596 O.3       1 ACP        -0.5737
     14 C5'        -0.8811    2.4285    1.6206 C.3       1 ACP         0.2197
     15 C4'        -0.1994    1.3333    2.4288 C.3       1 ACP         0.0944
     16 O4'        -1.1285    0.2356    2.5840 O.3       1 ACP        -0.4017
     17 C3'         1.0324    0.7610    1.7344 C.3       1 ACP         0.0859
     18 O3'         1.9175    0.2377    2.7247 O.3       1 ACP        -0.5941
     19 C2'         0.4468   -0.3802    0.9263 C.3       1 ACP         0.0924
     20 O2'         1.3993   -1.3703    0.5961 O.3       1 ACP        -0.5928
     21 C1'        -0.6159   -0.9100    1.8769 C.3       1 ACP         0.3967
     22 N9         -1.7127   -1.6108    1.2130 N.pl3     1 ACP        -0.6763
     23 C8         -2.8641   -1.0399    0.7392 C.ar      1 ACP         0.5586
     24 N7         -3.6659   -1.9257    0.1858 N.2       1 ACP        -0.5795
     25 C5         -3.0053   -3.1223    0.3069 C.ar      1 ACP        -0.2116
     26 C6         -3.3321   -4.4178   -0.0813 C.ar      1 ACP         0.7185
     27 N6         -4.5476   -4.6866   -0.7335 N.pl3     1 ACP        -0.9442
     28 N1         -2.4608   -5.4225    0.1773 N.ar      1 ACP        -0.8040
     29 C2         -1.3053   -5.1020    0.8081 C.ar      1 ACP         0.6560
     30 N3         -0.8788   -3.8921    1.2315 N.ar      1 ACP        -0.7058
     31 C4         -1.7870   -2.9477    0.9438 C.ar      1 ACP         0.5729
     32 HOG2       -5.6333    9.2552    2.6713 H         1 ACP         0.4440
     33 HOG3       -2.9158   10.1842    2.7581 H         1 ACP         0.4440
     34 H3B1       -3.3903    6.8236    4.3670 H         1 ACP         0.1084
     35 H3B2       -3.9351    5.8282    3.0200 H         1 ACP         0.1084
     36 H5'1       -1.7769    2.7852    2.1386 H         1 ACP         0.0281
     37 H5'2       -1.1652    2.0544    0.6320 H         1 ACP         0.0281
     38 H4'         0.0403    1.7078    3.4343 H         1 ACP         0.1082
     39 H3'         1.5906    1.4859    1.1353 H         1 ACP         0.0650
     40 HO3'        2.6839   -0.1150    2.2479 H         1 ACP         0.4300
     41 H2'        -0.0017    0.0018    0.0005 H         1 ACP         0.0785
     42 HO2'        0.9369   -2.0558    0.0825 H         1 ACP         0.4275
     43 H1'        -0.1998   -1.6319    2.6178 H         1 ACP         0.1009
     44 H8         -3.0609    0.0200    0.8250 H         1 ACP         0.1067
     45 HN61       -4.7432   -5.6184   -1.0469 H         1 ACP         0.4213
     46 HN62       -5.1624   -3.9284   -0.9616 H         1 ACP         0.4213
     47 H2         -0.6318   -5.9307    0.9993 H         1 ACP         0.0365
@<TRIPOS>BOND
     1    1    2 2
     2    1    3 1
     3    1    4 1
     4    1    8 1
     5    3   32 1
     6    4   33 1
     7    5    6 2
     8    5    7 1
     9    5    8 1
    10    5   12 1
    11    8   34 1
    12    8   35 1
    13    9   10 2
    14    9   11 1
    15    9   12 1
    16    9   13 1
    17   13   14 1
    18   14   15 1
    19   14   36 1
    20   14   37 1
    21   15   16 1
    22   15   17 1
    23   15   38 1
    24   16   21 1
    25   17   18 1
    26   17   19 1
    27   17   39 1
    28   18   40 1
    29   19   20 1
    30   19   21 1
    31   19   41 1
    32   20   42 1
    33   21   22 1
    34   21   43 1
    35   22   23 ar
    36   22   31 ar
    37   23   24 ar
    38   23   44 1
    39   24   25 ar
    40   25   26 ar
    41   25   31 ar
    42   26   27 1
    43   26   28 ar
    44   27   45 1
    45   27   46 1
    46   28   29 ar
    47   29   30 ar
    48   29   47 1
    49   30   31 ar
@<TRIPOS>SUBSTRUCTURE
     1 ACP         1 GROUP 0 A     ****
@<TRIPOS>MOLECULE
[[5-(6-aminopurin-9-yl)-3,4-dihydroxy-tetrahydrofuran-2-yl]methoxy-oxido-phosphoryl]oxy-(phosphonomethyl)phosphinate
   47    49     1     0     0
SMALL
USER_CHARGES

@<TRIPOS>ATOM
      1 PG         -5.5549    3.3628   -0.7715 P.3       1 ACP         1.6478
      2 O1G        -6.1929    2.5456   -1.8544 O.2       1 ACP        -0.9103
      3 O2G        -4.6940    2.5285    0.3115 O.3       1 ACP        -0.7989
      4 O3G        -6.5744    4.2254    0.1374 O.3       1 ACP        -0.7989
      5 PB         -3.4601    5.7409   -0.2367 P.3       1 ACP         1.4947
      6 O1B        -4.4871    6.5492    0.5220 O.co2     1 ACP        -0.8554
      7 O2B        -2.3625    6.3886   -1.0487 O.co2     1 ACP        -0.8554
      8 C3B        -4.3829    4.6032   -1.3659 C.3       1 ACP        -0.6550
      9 PA         -2.0037    4.7529    2.1525 P.3       1 ACP         1.5921
     10 O1A        -2.9381    5.3267    3.1957 O.co2     1 ACP        -0.8561
     11 O2A        -0.6728    5.4124    1.8637 O.co2     1 ACP        -0.8561
     12 O3A        -2.8235    4.6072    0.7474 O.3       1 ACP        -0.8166
     13 O5'        -1.7337    3.1724    2.4754 O.3       1 ACP        -0.5737
     14 C5'        -0.8811    2.4285    1.6206 C.3       1 ACP         0.2197
     15 C4'        -0.1994    1.3333    2.4288 C.3       1 ACP         0.0944
     16 O4'        -1.1285    0.2356    2.5840 O.3       1 ACP        -0.4017
     17 C3'         1.0324    0.7610    1.7344 C.3       1 ACP         0.0859
     18 O3'         1.9175    0.2377    2.7247 O.3       1 ACP        -0.5941
     19 C2'         0.4468   -0.3802    0.9263 C.3       1 ACP         0.0924
     20 O2'         1.3993   -1.3703    0.5961 O.3       1 ACP        -0.5928
     21 C1'        -0.6159   -0.9100    1.8769 C.3       1 ACP         0.3967
     22 N9         -1.7127   -1.6108    1.2130 N.pl3     1 ACP        -0.6763
     23 C8         -2.8641   -1.0399    0.7392 C.ar      1 ACP         0.5586
     24 N7         -3.6659   -1.9257    0.1858 N.2       1 ACP        -0.5795
     25 C5         -3.0053   -3.1223    0.3069 C.ar      1 ACP        -0.2116
     26 C6         -3.3321   -4.4178   -0.0813 C.ar      1 ACP         0.7185
     27 N6         -4.5476   -4.6866   -0.7335 N.pl3     1 ACP        -0.9442
     28 N1         -2.4608   -5.4225    0.1773 N.ar      1 ACP        -0.8040
     29 C2         -1.3053   -5.1020    0.8081 C.ar      1 ACP         0.6560
     30 N3         -0.8788   -3.8921    1.2315 N.ar      1 ACP        -0.7058
     31 C4         -1.7870   -2.9477    0.9438 C.ar      1 ACP         0.5729
     32 HOG2       -5.1419    1.8368    0.8435 H         1 ACP         0.4440
     33 HOG3       -7.2700    3.7571    0.6462 H         1 ACP         0.4440
     34 H3B1       -3.6157    4.0812   -1.9488 H         1 ACP         0.1084
     35 H3B2       -4.9280    5.2503   -2.0624 H         1 ACP         0.1084
     36 H5'1       -1.4802    1.9929    0.8148 H         1 ACP         0.0281
     37 H5'2       -0.1370    3.1043    1.1873 H         1 ACP         0.0281
     38 H4'         0.0403    1.7078    3.4343 H         1 ACP         0.1082
     39 H3'         1.5906    1.4859    1.1353 H         1 ACP         0.0650
     40 HO3'        2.6839   -0.1150    2.2479 H         1 ACP         0.4300
     41 H2'        -0.0017    0.0018    0.0005 H         1 ACP         0.0785
     42 HO2'        0.9369   -2.0558    0.0825 H         1 ACP         0.4275
     43 H1'        -0.1998   -1.6319    2.6178 H         1 ACP         0.1009
     44 H8         -3.0609    0.0200    0.8250 H         1 ACP         0.1067
     45 HN61       -5.2046   -3.9433   -0.8775 H         1 ACP         0.4213
     46 HN62       -4.7849   -5.6332   -0.9625 H         1 ACP         0.4213
     47 H2         -0.6318   -5.9307    0.9993 H         1 ACP         0.0365
@<TRIPOS>BOND
     1    1    2 2
     2    1    3 1
     3    1    4 1
     4    1    8 1
     5    3   32 1
     6    4   33 1
     7    5    6 2
     8    5    7 1
     9    5    8 1
    10    5   12 1
    11    8   34 1
    12    8   35 1
    13    9   10 2
    14    9   11 1
    15    9   12 1
    16    9   13 1
    17   13   14 1
    18   14   15 1
    19   14   36 1
    20   14   37 1
    21   15   16 1
    22   15   17 1
    23   15   38 1
    24   16   21 1
    25   17   18 1
    26   17   19 1
    27   17   39 1
    28   18   40 1
    29   19   20 1
    30   19   21 1
    31   19   41 1
    32   20   42 1
    33   21   22 1
    34   21   43 1
    35   22   23 ar
    36   22   31 ar
    37   23   24 ar
    38   23   44 1
    39   24   25 ar
    40   25   26 ar
    41   25   31 ar
    42   26   27 1
    43   26   28 ar
    44   27   45 1
    45   27   46 1
    46   28   29 ar
    47   29   30 ar
    48   29   47 1
    49   30   31 ar
@<TRIPOS>SUBSTRUCTURE
     1 ACP         1 GROUP 0 A     ****
@<TRIPOS>MOLECULE
[[5-(6-aminopurin-9-yl)-3,4-dihydroxy-tetrahydrofuran-2-yl]methoxy-oxido-phosphoryl]oxy-(phosphonomethyl)phosphinate
   47    49     1     0     0
SMALL
USER_CHARGES

@<TRIPOS>ATOM
      1 PG         -5.0110    4.5719    0.3996 P.3       1 ACP         1.6478
      2 O1G        -5.4730    4.1374   -0.9587 O.2       1 ACP        -0.9103
      3 O2G        -4.0933    3.5059    1.1944 O.3       1 ACP        -0.7989
      4 O3G        -6.1857    4.9207    1.4523 O.3       1 ACP        -0.7989
      5 PB         -2.3949    6.2027   -0.5094 P.3       1 ACP         1.4947
      6 O1B        -1.8575    7.5944   -0.2686 O.co2     1 ACP        -0.8554
      7 O2B        -2.6173    5.6526   -1.8992 O.co2     1 ACP        -0.8554
      8 C3B        -4.0002    6.0699    0.3995 C.3       1 ACP        -0.6550
      9 PA         -0.0885    4.4445    0.1193 P.3       1 ACP         1.5921
     10 O1A         0.9671    5.5276    0.1742 O.co2     1 ACP        -0.8561
     11 O2A        -0.1962    3.5335   -1.0842 O.co2     1 ACP        -0.8561
     12 O3A        -1.5478    5.1301    0.3800 O.3       1 ACP        -0.8166
     13 O5'         0.0182    3.5132    1.4596 O.3       1 ACP        -0.5737
     14 C5'        -0.8811    2.4285    1.6206 C.3       1 ACP         0.2197
     15 C4'        -0.1994    1.3333    2.4288 C.3       1 ACP         0.0944
     16 O4'        -1.1285    0.2356    2.5840 O.3       1 ACP        -0.4017
     17 C3'         1.0324    0.7610    1.7344 C.3       1 ACP         0.0859
     18 O3'         1.9175    0.2377    2.7247 O.3       1 ACP        -0.5941
     19 C2'         0.4468   -0.3802    0.9263 C.3       1 ACP         0.0924
     20 O2'         1.3993   -1.3703    0.5961 O.3       1 ACP        -0.5928
     21 C1'        -0.6159   -0.9100    1.8769 C.3       1 ACP         0.3967
     22 N9         -1.7127   -1.6108    1.2130 N.pl3     1 ACP        -0.6763
     23 C8         -2.8641   -1.0399    0.7392 C.ar      1 ACP         0.5586
     24 N7         -3.6659   -1.9257    0.1858 N.2       1 ACP        -0.5795
     25 C5         -3.0053   -3.1223    0.3069 C.ar      1 ACP        -0.2116
     26 C6         -3.3321   -4.4178   -0.0813 C.ar      1 ACP         0.7185
     27 N6         -4.5476   -4.6866   -0.7335 N.pl3     1 ACP        -0.9442
     28 N1         -2.4608   -5.4225    0.1773 N.ar      1 ACP        -0.8040
     29 C2         -1.3053   -5.1020    0.8081 C.ar      1 ACP         0.6560
     30 N3         -0.8788   -3.8921    1.2315 N.ar      1 ACP        -0.7058
     31 C4         -1.7870   -2.9477    0.9438 C.ar      1 ACP         0.5729
     32 HOG2       -4.4634    2.6213    1.4009 H         1 ACP         0.4440
     33 HOG3       -6.8312    4.2224    1.6925 H         1 ACP         0.4440
     34 H3B1       -4.6218    6.8886    0.0199 H         1 ACP         0.1084
     35 H3B2       -3.7714    6.3013    1.4460 H         1 ACP         0.1084
     36 H5'1       -1.7769    2.7852    2.1386 H         1 ACP         0.0281
     37 H5'2       -1.1652    2.0544    0.6320 H         1 ACP         0.0281
     38 H4'         0.0403    1.7078    3.4343 H         1 ACP         0.1082
     39 H3'         1.5906    1.4859    1.1353 H         1 ACP         0.0650
     40 HO3'        2.6839   -0.1150    2.2479 H         1 ACP         0.4300
     41 H2'        -0.0017    0.0018    0.0005 H         1 ACP         0.0785
     42 HO2'        2.0953   -0.9375    0.0709 H         1 ACP         0.4275
     43 H1'        -0.1998   -1.6319    2.6178 H         1 ACP         0.1009
     44 H8         -3.0609    0.0200    0.8250 H         1 ACP         0.1067
     45 HN61       -5.2046   -3.9433   -0.8775 H         1 ACP         0.4213
     46 HN62       -4.7849   -5.6332   -0.9625 H         1 ACP         0.4213
     47 H2         -0.6318   -5.9307    0.9993 H         1 ACP         0.0365
@<TRIPOS>BOND
     1    1    2 2
     2    1    3 1
     3    1    4 1
     4    1    8 1
     5    3   32 1
     6    4   33 1
     7    5    6 2
     8    5    7 1
     9    5    8 1
    10    5   12 1
    11    8   34 1
    12    8   35 1
    13    9   10 2
    14    9   11 1
    15    9   12 1
    16    9   13 1
    17   13   14 1
    18   14   15 1
    19   14   36 1
    20   14   37 1
    21   15   16 1
    22   15   17 1
    23   15   38 1
    24   16   21 1
    25   17   18 1
    26   17   19 1
    27   17   39 1
    28   18   40 1
    29   19   20 1
    30   19   21 1
    31   19   41 1
    32   20   42 1
    33   21   22 1
    34   21   43 1
    35   22   23 ar
    36   22   31 ar
    37   23   24 ar
    38   23   44 1
    39   24   25 ar
    40   25   26 ar
    41   25   31 ar
    42   26   27 1
    43   26   28 ar
    44   27   45 1
    45   27   46 1
    46   28   29 ar
    47   29   30 ar
    48   29   47 1
    49   30   31 ar
@<TRIPOS>SUBSTRUCTURE
     1 ACP         1 GROUP 0 A     ****
@<TRIPOS>MOLECULE
[[5-(6-aminopurin-9-yl)-3,4-dihydroxy-tetrahydrofuran-2-yl]methoxy-oxido-phosphoryl]oxy-(phosphonomethyl)phosphinate
   47    49     1     0     0
SMALL
USER_CHARGES

@<TRIPOS>ATOM
      1 PG         -3.3755    4.0650   -2.7762 P.3       1 ACP         1.6478
      2 O1G        -3.1669    2.6318   -3.1631 O.2       1 ACP        -0.9103
      3 O2G        -4.0219    4.3023   -1.3147 O.3       1 ACP        -0.7989
      4 O3G        -4.3360    4.9150   -3.7584 O.3       1 ACP        -0.7989
      5 PB         -0.4377    4.6553   -1.6141 P.3       1 ACP         1.4947
      6 O1B         0.6262    5.6999   -1.8599 O.co2     1 ACP        -0.8554
      7 O2B        -0.1616    3.1754   -1.7459 O.co2     1 ACP        -0.8554
      8 C3B        -1.8623    5.0514   -2.7251 C.3       1 ACP        -0.6550
      9 PA         -0.5788    5.0300    1.3263 P.3       1 ACP         1.5921
     10 O1A        -1.7338    5.2023    2.2890 O.co2     1 ACP        -0.8561
     11 O2A         0.5830    5.9997    1.3349 O.co2     1 ACP        -0.8561
     12 O3A        -1.1769    4.9545   -0.1916 O.3       1 ACP        -0.8166
     13 O5'         0.0182    3.5132    1.4596 O.3       1 ACP        -0.5737
     14 C5'        -0.8811    2.4285    1.6206 C.3       1 ACP         0.2197
     15 C4'        -0.1994    1.3333    2.4288 C.3       1 ACP         0.0944
     16 O4'        -1.1285    0.2356    2.5840 O.3       1 ACP        -0.4017
     17 C3'         1.0324    0.7610    1.7344 C.3       1 ACP         0.0859
     18 O3'         1.9175    0.2377    2.7247 O.3       1 ACP        -0.5941
     19 C2'         0.4468   -0.3802    0.9263 C.3       1 ACP         0.0924
     20 O2'         1.3993   -1.3703    0.5961 O.3       1 ACP        -0.5928
     21 C1'        -0.6159   -0.9100    1.8769 C.3       1 ACP         0.3967
     22 N9         -1.7127   -1.6108    1.2130 N.pl3     1 ACP        -0.6763
     23 C8         -1.7712   -2.9546    0.9544 C.ar      1 ACP         0.5586
     24 N7         -2.8883   -3.2948    0.3462 N.2       1 ACP        -0.5795
     25 C5         -3.5834   -2.1202    0.2043 C.ar      1 ACP        -0.2116
     26 C6         -4.8225   -1.8251   -0.3554 C.ar      1 ACP         0.7185
     27 N6         -5.6154   -2.8394   -0.9189 N.pl3     1 ACP        -0.9442
     28 N1         -5.2589   -0.5425   -0.3507 N.ar      1 ACP        -0.8040
     29 C2         -4.4510    0.3913    0.2069 C.ar      1 ACP         0.6560
     30 N3         -3.2368    0.2296    0.7767 N.ar      1 ACP        -0.7058
     31 C4         -2.8684   -1.0596    0.7376 C.ar      1 ACP         0.5729
     32 HOG2       -4.9080    3.9291   -1.1208 H         1 ACP         0.4440
     33 HOG3       -5.2633    4.6223   -3.8864 H         1 ACP         0.4440
     34 H3B1       -1.4473    5.0736   -3.7391 H         1 ACP         0.1084
     35 H3B2       -2.1577    6.0776   -2.4784 H         1 ACP         0.1084
     36 H5'1       -1.7769    2.7852    2.1386 H         1 ACP         0.0281
     37 H5'2       -1.1652    2.0544    0.6320 H         1 ACP         0.0281
     38 H4'         0.0403    1.7078    3.4343 H         1 ACP         0.1082
     39 H3'         1.5906    1.4859    1.1353 H         1 ACP         0.0650
     40 HO3'        2.6839   -0.1150    2.2479 H         1 ACP         0.4300
     41 H2'        -0.0017    0.0018    0.0005 H         1 ACP         0.0785
     42 HO2'        2.0953   -0.9375    0.0709 H         1 ACP         0.4275
     43 H1'        -0.1998   -1.6319    2.6178 H         1 ACP         0.1009
     44 H8         -0.9745   -3.6312    1.2318 H         1 ACP         0.1067
     45 HN61       -5.2619   -3.7766   -0.9586 H         1 ACP         0.4213
     46 HN62       -6.4834   -2.5990   -1.3590 H         1 ACP         0.4213
     47 H2         -4.8317    1.4071    0.1930 H         1 ACP         0.0365
@<TRIPOS>BOND
     1    1    2 2
     2    1    3 1
     3    1    4 1
     4    1    8 1
     5    3   32 1
     6    4   33 1
     7    5    6 2
     8    5    7 1
     9    5    8 1
    10    5   12 1
    11    8   34 1
    12    8   35 1
    13    9   10 2
    14    9   11 1
    15    9   12 1
    16    9   13 1
    17   13   14 1
    18   14   15 1
    19   14   36 1
    20   14   37 1
    21   15   16 1
    22   15   17 1
    23   15   38 1
    24   16   21 1
    25   17   18 1
    26   17   19 1
    27   17   39 1
    28   18   40 1
    29   19   20 1
    30   19   21 1
    31   19   41 1
    32   20   42 1
    33   21   22 1
    34   21   43 1
    35   22   23 ar
    36   22   31 ar
    37   23   24 ar
    38   23   44 1
    39   24   25 ar
    40   25   26 ar
    41   25   31 ar
    42   26   27 1
    43   26   28 ar
    44   27   45 1
    45   27   46 1
    46   28   29 ar
    47   29   30 ar
    48   29   47 1
    49   30   31 ar
@<TRIPOS>SUBSTRUCTURE
     1 ACP         1 GROUP 0 A     ****
@<TRIPOS>MOLECULE
[[5-(6-aminopurin-9-yl)-3,4-dihydroxy-tetrahydrofuran-2-yl]methoxy-oxido-phosphoryl]oxy-(phosphonomethyl)phosphinate
   47    49     1     0     0
SMALL
USER_CHARGES

@<TRIPOS>ATOM
      1 PG         -0.2619    5.7844    6.2923 P.3       1 ACP         1.6478
      2 O1G        -1.3261    6.4768    7.0895 O.2       1 ACP        -0.9103
      3 O2G        -0.5741    4.2471    5.9057 O.3       1 ACP        -0.7989
      4 O3G         1.1918    5.7117    6.9930 O.3       1 ACP        -0.7989
      5 PB         -1.1852    6.7465    3.3680 P.3       1 ACP         1.4947
      6 O1B        -0.5128    7.4242    2.1966 O.co2     1 ACP        -0.8554
      7 O2B        -2.4294    7.3054    4.0184 O.co2     1 ACP        -0.8554
      8 C3B         0.0894    6.5504    4.6938 C.3       1 ACP        -0.6550
      9 PA         -2.5401    4.4095    2.1396 P.3       1 ACP         1.5921
     10 O1A        -2.3764    4.8319    0.6956 O.co2     1 ACP        -0.8561
     11 O2A        -3.8732    4.5590    2.8399 O.co2     1 ACP        -0.8561
     12 O3A        -1.4003    5.1652    3.0325 O.3       1 ACP        -0.8166
     13 O5'        -2.0402    2.8619    2.3132 O.3       1 ACP        -0.5737
     14 C5'        -0.8811    2.4285    1.6206 C.3       1 ACP         0.2197
     15 C4'        -0.1994    1.3333    2.4288 C.3       1 ACP         0.0944
     16 O4'        -1.1285    0.2356    2.5840 O.3       1 ACP        -0.4017
     17 C3'         1.0324    0.7610    1.7344 C.3       1 ACP         0.0859
     18 O3'         1.9175    0.2377    2.7247 O.3       1 ACP        -0.5941
     19 C2'         0.4468   -0.3802    0.9263 C.3       1 ACP         0.0924
     20 O2'         1.3993   -1.3703    0.5961 O.3       1 ACP        -0.5928
     21 C1'        -0.6159   -0.9100    1.8769 C.3       1 ACP         0.3967
     22 N9         -1.7127   -1.6108    1.2130 N.pl3     1 ACP        -0.6763
     23 C8         -2.5476   -1.0844    0.2632 C.ar      1 ACP         0.5586
     24 N7         -3.4391   -1.9591   -0.1536 N.2       1 ACP        -0.5795
     25 C5         -3.1701   -3.1016    0.5574 C.ar      1 ACP        -0.2116
     26 C6         -3.7593   -4.3620    0.5656 C.ar      1 ACP         0.7185
     27 N6         -4.8512   -4.6493   -0.2712 N.pl3     1 ACP        -0.9442
     28 N1         -3.2659   -5.3144    1.3932 N.ar      1 ACP        -0.8040
     29 C2         -2.2122   -4.9785    2.1759 C.ar      1 ACP         0.6560
     30 N3         -1.5595   -3.7985    2.2572 N.ar      1 ACP        -0.7058
     31 C4         -2.0986   -2.9054    1.4140 C.ar      1 ACP         0.5729
     32 HOG2       -0.7172    3.5959    6.6252 H         1 ACP         0.4440
     33 HOG3        1.2811    5.2536    7.8557 H         1 ACP         0.4440
     34 H3B1        0.4706    7.5595    4.8869 H         1 ACP         0.1084
     35 H3B2        0.9083    5.9811    4.2395 H         1 ACP         0.1084
     36 H5'1       -1.1771    2.0504    0.6370 H         1 ACP         0.0281
     37 H5'2       -0.2083    3.2816    1.4878 H         1 ACP         0.0281
     38 H4'         0.0403    1.7078    3.4343 H         1 ACP         0.1082
     39 H3'         1.5906    1.4859    1.1353 H         1 ACP         0.0650
     40 HO3'        2.6839   -0.1150    2.2479 H         1 ACP         0.4300
     41 H2'        -0.0017    0.0018    0.0005 H         1 ACP         0.0785
     42 HO2'        0.9369   -2.0558    0.0825 H         1 ACP         0.4275
     43 H1'        -0.1998   -1.6319    2.6178 H         1 ACP         0.1009
     44 H8         -2.4576   -0.0639   -0.0831 H         1 ACP         0.1067
     45 HN61       -5.2312   -5.5768   -0.2846 H         1 ACP         0.4213
     46 HN62       -5.1770   -3.9517   -0.9131 H         1 ACP         0.4213
     47 H2         -1.8433   -5.7650    2.8259 H         1 ACP         0.0365
@<TRIPOS>BOND
     1    1    2 2
     2    1    3 1
     3    1    4 1
     4    1    8 1
     5    3   32 1
     6    4   33 1
     7    5    6 2
     8    5    7 1
     9    5    8 1
    10    5   12 1
    11    8   34 1
    12    8   35 1
    13    9   10 2
    14    9   11 1
    15    9   12 1
    16    9   13 1
    17   13   14 1
    18   14   15 1
    19   14   36 1
    20   14   37 1
    21   15   16 1
    22   15   17 1
    23   15   38 1
    24   16   21 1
    25   17   18 1
    26   17   19 1
    27   17   39 1
    28   18   40 1
    29   19   20 1
    30   19   21 1
    31   19   41 1
    32   20   42 1
    33   21   22 1
    34   21   43 1
    35   22   23 ar
    36   22   31 ar
    37   23   24 ar
    38   23   44 1
    39   24   25 ar
    40   25   26 ar
    41   25   31 ar
    42   26   27 1
    43   26   28 ar
    44   27   45 1
    45   27   46 1
    46   28   29 ar
    47   29   30 ar
    48   29   47 1
    49   30   31 ar
@<TRIPOS>SUBSTRUCTURE
     1 ACP         1 GROUP 0 A     ****
@<TRIPOS>MOLECULE
[[5-(6-aminopurin-9-yl)-3,4-dihydroxy-tetrahydrofuran-2-yl]methoxy-oxido-phosphoryl]oxy-(phosphonomethyl)phosphinate
   47    49     1     0     0
SMALL
USER_CHARGES

@<TRIPOS>ATOM
      1 PG          3.0283    5.1661   -3.9195 P.3       1 ACP         1.6478
      2 O1G         2.4278    4.8331   -2.5869 O.2       1 ACP        -0.9103
      3 O2G         3.5600    6.6831   -4.0816 O.3       1 ACP        -0.7989
      4 O3G         2.0492    4.9695   -5.1893 O.3       1 ACP        -0.7989
      5 PB          6.0186    4.1401   -3.3406 P.3       1 ACP         1.4947
      6 O1B         6.5534    5.5527   -3.2944 O.co2     1 ACP        -0.8554
      7 O2B         6.8523    2.9768   -3.8259 O.co2     1 ACP        -0.8554
      8 C3B         4.4729    4.1719   -4.3558 C.3       1 ACP        -0.6550
      9 PA          5.9683    3.7222   -0.4031 P.3       1 ACP         1.5921
     10 O1A         6.3619    5.1281   -0.0042 O.co2     1 ACP        -0.8561
     11 O2A         6.9748    2.5938   -0.3434 O.co2     1 ACP        -0.8561
     12 O3A         5.3344    3.7693   -1.9076 O.3       1 ACP        -0.8166
     13 O5'         4.6404    3.2702    0.4379 O.3       1 ACP        -0.5737
     14 C5'         4.0922    1.9801    0.2227 C.3       1 ACP         0.2197
     15 C4'         2.5944    2.0310    0.4653 C.3       1 ACP         0.0944
     16 O4'         1.9327    2.5740   -0.6889 O.3       1 ACP        -0.4017
     17 C3'         1.9685    0.6634    0.6767 C.3       1 ACP         0.0859
     18 O3'         2.1425    0.1975    1.9977 O.3       1 ACP        -0.5941
     19 C2'         0.5176    0.9128    0.3099 C.3       1 ACP         0.0924
     20 O2'        -0.2103    1.4454    1.4152 O.3       1 ACP        -0.5928
     21 C1'         0.6219    1.9765   -0.7844 C.3       1 ACP         0.3967
     22 N9          0.4237    1.4496   -2.1357 N.pl3     1 ACP        -0.6763
     23 C8          1.4026    0.9717   -2.9660 C.ar      1 ACP         0.5586
     24 N7          0.9183    0.5619   -4.1197 N.2       1 ACP        -0.5795
     25 C5         -0.4330    0.7845   -4.0331 C.ar      1 ACP        -0.2116
     26 C6         -1.4794    0.5615   -4.9225 C.ar      1 ACP         0.7185
     27 N6         -1.2378    0.0044   -6.1899 N.pl3     1 ACP        -0.9442
     28 N1         -2.7406    0.8885   -4.5512 N.ar      1 ACP        -0.8040
     29 C2         -2.9113    1.4216   -3.3172 C.ar      1 ACP         0.6560
     30 N3         -1.9824    1.6843   -2.3721 N.ar      1 ACP        -0.7058
     31 C4         -0.7613    1.3370   -2.8054 C.ar      1 ACP         0.5729
     32 HOG2        2.9246    7.4229   -3.9768 H         1 ACP         0.4440
     33 HOG3        1.2149    5.4836   -5.2301 H         1 ACP         0.4440
     34 H3B1        4.1468    3.1282   -4.4280 H         1 ACP         0.1084
     35 H3B2        4.7816    4.4804   -5.3611 H         1 ACP         0.1084
     36 H5'1        4.3030    1.6732   -0.8066 H         1 ACP         0.0281
     37 H5'2        4.5679    1.2741    0.9106 H         1 ACP         0.0281
     38 H4'         2.3751    2.7029    1.3156 H         1 ACP         0.1082
     39 H3'         2.4336   -0.1217   -0.0015 H         1 ACP         0.0650
     40 HO3'        1.7160   -0.6716    2.0397 H         1 ACP         0.4300
     41 H2'         0.0316    0.0155   -0.0339 H         1 ACP         0.0785
     42 HO2'       -0.1608    0.7921    2.1351 H         1 ACP         0.4275
     43 H1'        -0.1474    2.7798   -0.6651 H         1 ACP         0.1009
     44 H8          2.4442    0.9470   -2.6763 H         1 ACP         0.1067
     45 HN61       -0.2955   -0.1901   -6.4713 H         1 ACP         0.4213
     46 HN62       -1.9987   -0.1045   -6.8334 H         1 ACP         0.4213
     47 H2         -3.9335    1.6716   -3.0534 H         1 ACP         0.0365
@<TRIPOS>BOND
     1    1    2 2
     2    1    3 1
     3    1    4 1
     4    1    8 1
     5    3   32 1
     6    4   33 1
     7    5    6 2
     8    5    7 1
     9    5    8 1
    10    5   12 1
    11    8   34 1
    12    8   35 1
    13    9   10 2
    14    9   11 1
    15    9   12 1
    16    9   13 1
    17   13   14 1
    18   14   15 1
    19   14   36 1
    20   14   37 1
    21   15   16 1
    22   15   17 1
    23   15   38 1
    24   16   21 1
    25   17   18 1
    26   17   19 1
    27   17   39 1
    28   18   40 1
    29   19   20 1
    30   19   21 1
    31   19   41 1
    32   20   42 1
    33   21   22 1
    34   21   43 1
    35   22   23 ar
    36   22   31 ar
    37   23   24 ar
    38   23   44 1
    39   24   25 ar
    40   25   26 ar
    41   25   31 ar
    42   26   27 1
    43   26   28 ar
    44   27   45 1
    45   27   46 1
    46   28   29 ar
    47   29   30 ar
    48   29   47 1
    49   30   31 ar
@<TRIPOS>SUBSTRUCTURE
     1 ACP         1 GROUP 0 A     ****
@<TRIPOS>MOLECULE
[[5-(6-aminopurin-9-yl)-3,4-dihydroxy-tetrahydrofuran-2-yl]methoxy-oxido-phosphoryl]oxy-(phosphonomethyl)phosphinate
   47    49     1     0     0
SMALL
USER_CHARGES

@<TRIPOS>ATOM
      1 PG         -4.3923    7.2708    2.6780 P.3       1 ACP         1.6478
      2 O1G        -3.9800    8.6867    2.9469 O.2       1 ACP        -0.9103
      3 O2G        -4.3587    6.8209    1.1266 O.3       1 ACP        -0.7989
      4 O3G        -5.8865    6.8820    3.1535 O.3       1 ACP        -0.7989
      5 PB         -1.5478    5.8637    3.1865 P.3       1 ACP         1.4947
      6 O1B        -1.0502    4.7226    4.0433 O.co2     1 ACP        -0.8554
      7 O2B        -0.9515    7.2501    3.2631 O.co2     1 ACP        -0.8554
      8 C3B        -3.3645    6.0273    3.4923 C.3       1 ACP        -0.6550
      9 PA         -0.4662    4.8323    0.6228 P.3       1 ACP         1.5921
     10 O1A         0.6572    5.8459    0.5874 O.co2     1 ACP        -0.8561
     11 O2A        -1.1249    4.3667   -0.6576 O.co2     1 ACP        -0.8561
     12 O3A        -1.6280    5.3822    1.6306 O.3       1 ACP        -0.8166
     13 O5'         0.0182    3.5132    1.4596 O.3       1 ACP        -0.5737
     14 C5'        -0.8811    2.4285    1.6206 C.3       1 ACP         0.2197
     15 C4'        -0.1994    1.3333    2.4288 C.3       1 ACP         0.0944
     16 O4'        -1.1285    0.2356    2.5840 O.3       1 ACP        -0.4017
     17 C3'         1.0324    0.7610    1.7344 C.3       1 ACP         0.0859
     18 O3'         1.9175    0.2377    2.7247 O.3       1 ACP        -0.5941
     19 C2'         0.4468   -0.3802    0.9263 C.3       1 ACP         0.0924
     20 O2'         1.3993   -1.3703    0.5961 O.3       1 ACP        -0.5928
     21 C1'        -0.6159   -0.9100    1.8769 C.3       1 ACP         0.3967
     22 N9         -1.7127   -1.6108    1.2130 N.pl3     1 ACP        -0.6763
     23 C8         -1.7712   -2.9546    0.9544 C.ar      1 ACP         0.5586
     24 N7         -2.8883   -3.2948    0.3462 N.2       1 ACP        -0.5795
     25 C5         -3.5834   -2.1202    0.2043 C.ar      1 ACP        -0.2116
     26 C6         -4.8225   -1.8251   -0.3554 C.ar      1 ACP         0.7185
     27 N6         -5.6154   -2.8394   -0.9189 N.pl3     1 ACP        -0.9442
     28 N1         -5.2589   -0.5425   -0.3507 N.ar      1 ACP        -0.8040
     29 C2         -4.4510    0.3913    0.2069 C.ar      1 ACP         0.6560
     30 N3         -3.2368    0.2296    0.7767 N.ar      1 ACP        -0.7058
     31 C4         -2.8684   -1.0596    0.7376 C.ar      1 ACP         0.5729
     32 HOG2       -4.9191    7.3010    0.4805 H         1 ACP         0.4440
     33 HOG3       -6.6479    7.3703    2.7743 H         1 ACP         0.4440
     34 H3B1       -3.4693    6.1681    4.5740 H         1 ACP         0.1084
     35 H3B2       -3.7972    5.0490    3.2541 H         1 ACP         0.1084
     36 H5'1       -1.7769    2.7852    2.1386 H         1 ACP         0.0281
     37 H5'2       -1.1652    2.0544    0.6320 H         1 ACP         0.0281
     38 H4'         0.0403    1.7078    3.4343 H         1 ACP         0.1082
     39 H3'         1.5906    1.4859    1.1353 H         1 ACP         0.0650
     40 HO3'        2.6839   -0.1150    2.2479 H         1 ACP         0.4300
     41 H2'        -0.0017    0.0018    0.0005 H         1 ACP         0.0785
     42 HO2'        2.0953   -0.9375    0.0709 H         1 ACP         0.4275
     43 H1'        -0.1998   -1.6319    2.6178 H         1 ACP         0.1009
     44 H8         -0.9745   -3.6312    1.2318 H         1 ACP         0.1067
     45 HN61       -5.2619   -3.7766   -0.9586 H         1 ACP         0.4213
     46 HN62       -6.4834   -2.5990   -1.3590 H         1 ACP         0.4213
     47 H2         -4.8317    1.4071    0.1930 H         1 ACP         0.0365
@<TRIPOS>BOND
     1    1    2 2
     2    1    3 1
     3    1    4 1
     4    1    8 1
     5    3   32 1
     6    4   33 1
     7    5    6 2
     8    5    7 1
     9    5    8 1
    10    5   12 1
    11    8   34 1
    12    8   35 1
    13    9   10 2
    14    9   11 1
    15    9   12 1
    16    9   13 1
    17   13   14 1
    18   14   15 1
    19   14   36 1
    20   14   37 1
    21   15   16 1
    22   15   17 1
    23   15   38 1
    24   16   21 1
    25   17   18 1
    26   17   19 1
    27   17   39 1
    28   18   40 1
    29   19   20 1
    30   19   21 1
    31   19   41 1
    32   20   42 1
    33   21   22 1
    34   21   43 1
    35   22   23 ar
    36   22   31 ar
    37   23   24 ar
    38   23   44 1
    39   24   25 ar
    40   25   26 ar
    41   25   31 ar
    42   26   27 1
    43   26   28 ar
    44   27   45 1
    45   27   46 1
    46   28   29 ar
    47   29   30 ar
    48   29   47 1
    49   30   31 ar
@<TRIPOS>SUBSTRUCTURE
     1 ACP         1 GROUP 0 A     ****
@<TRIPOS>MOLECULE
[[5-(6-aminopurin-9-yl)-3,4-dihydroxy-tetrahydrofuran-2-yl]methoxy-oxido-phosphoryl]oxy-(phosphonomethyl)phosphinate
   47    49     1     0     0
SMALL
USER_CHARGES

@<TRIPOS>ATOM
      1 PG          4.2564    3.2924   -0.8953 P.3       1 ACP         1.6478
      2 O1G         5.2382    2.2017   -1.2017 O.2       1 ACP        -0.9103
      3 O2G         4.8331    4.7973   -1.0089 O.3       1 ACP        -0.7989
      4 O3G         3.6076    3.2452    0.5833 O.3       1 ACP        -0.7989
      5 PB          1.4508    4.5630   -1.8140 P.3       1 ACP         1.4947
      6 O1B         0.4337    4.2597   -2.8897 O.co2     1 ACP        -0.8554
      7 O2B         2.0973    5.9217   -1.6745 O.co2     1 ACP        -0.8554
      8 C3B         2.8104    3.3199   -1.9787 C.3       1 ACP        -0.6550
      9 PA         -0.1841    4.7788    0.6530 P.3       1 ACP         1.5921
     10 O1A        -1.5389    4.8251   -0.0199 O.co2     1 ACP        -0.8561
     11 O2A         0.4469    6.0397    1.2027 O.co2     1 ACP        -0.8561
     12 O3A         0.8774    4.0732   -0.3682 O.3       1 ACP        -0.8166
     13 O5'        -0.2059    3.6558    1.8419 O.3       1 ACP        -0.5737
     14 C5'        -0.8811    2.4285    1.6206 C.3       1 ACP         0.2197
     15 C4'        -0.1994    1.3333    2.4288 C.3       1 ACP         0.0944
     16 O4'        -1.1285    0.2356    2.5840 O.3       1 ACP        -0.4017
     17 C3'         1.0324    0.7610    1.7344 C.3       1 ACP         0.0859
     18 O3'         1.9175    0.2377    2.7247 O.3       1 ACP        -0.5941
     19 C2'         0.4468   -0.3802    0.9263 C.3       1 ACP         0.0924
     20 O2'         1.3993   -1.3703    0.5961 O.3       1 ACP        -0.5928
     21 C1'        -0.6159   -0.9100    1.8769 C.3       1 ACP         0.3967
     22 N9         -1.7127   -1.6108    1.2130 N.pl3     1 ACP        -0.6763
     23 C8         -1.7712   -2.9546    0.9544 C.ar      1 ACP         0.5586
     24 N7         -2.8883   -3.2948    0.3462 N.2       1 ACP        -0.5795
     25 C5         -3.5834   -2.1202    0.2043 C.ar      1 ACP        -0.2116
     26 C6         -4.8225   -1.8251   -0.3554 C.ar      1 ACP         0.7185
     27 N6         -5.6154   -2.8394   -0.9189 N.pl3     1 ACP        -0.9442
     28 N1         -5.2589   -0.5425   -0.3507 N.ar      1 ACP        -0.8040
     29 C2         -4.4510    0.3913    0.2069 C.ar      1 ACP         0.6560
     30 N3         -3.2368    0.2296    0.7767 N.ar      1 ACP        -0.7058
     31 C4         -2.8684   -1.0596    0.7376 C.ar      1 ACP         0.5729
     32 HOG2        5.5854    5.0621   -0.4380 H         1 ACP         0.4440
     33 HOG3        4.1987    3.3055    1.3637 H         1 ACP         0.4440
     34 H3B1        3.1707    3.4128   -3.0094 H         1 ACP         0.1084
     35 H3B2        2.3299    2.3384   -1.8956 H         1 ACP         0.1084
     36 H5'1       -1.9255    2.5383    1.9294 H         1 ACP         0.0281
     37 H5'2       -0.8472    2.1934    0.5521 H         1 ACP         0.0281
     38 H4'         0.0403    1.7078    3.4343 H         1 ACP         0.1082
     39 H3'         1.5906    1.4859    1.1353 H         1 ACP         0.0650
     40 HO3'        2.6839   -0.1150    2.2479 H         1 ACP         0.4300
     41 H2'        -0.0017    0.0018    0.0005 H         1 ACP         0.0785
     42 HO2'        2.0953   -0.9375    0.0709 H         1 ACP         0.4275
     43 H1'        -0.1998   -1.6319    2.6178 H         1 ACP         0.1009
     44 H8         -0.9745   -3.6312    1.2318 H         1 ACP         0.1067
     45 HN61       -5.2619   -3.7766   -0.9586 H         1 ACP         0.4213
     46 HN62       -6.4834   -2.5990   -1.3590 H         1 ACP         0.4213
     47 H2         -4.8317    1.4071    0.1930 H         1 ACP         0.0365
@<TRIPOS>BOND
     1    1    2 2
     2    1    3 1
     3    1    4 1
     4    1    8 1
     5    3   32 1
     6    4   33 1
     7    5    6 2
     8    5    7 1
     9    5    8 1
    10    5   12 1
    11    8   34 1
    12    8   35 1
    13    9   10 2
    14    9   11 1
    15    9   12 1
    16    9   13 1
    17   13   14 1
    18   14   15 1
    19   14   36 1
    20   14   37 1
    21   15   16 1
    22   15   17 1
    23   15   38 1
    24   16   21 1
    25   17   18 1
    26   17   19 1
    27   17   39 1
    28   18   40 1
    29   19   20 1
    30   19   21 1
    31   19   41 1
    32   20   42 1
    33   21   22 1
    34   21   43 1
    35   22   23 ar
    36   22   31 ar
    37   23   24 ar
    38   23   44 1
    39   24   25 ar
    40   25   26 ar
    41   25   31 ar
    42   26   27 1
    43   26   28 ar
    44   27   45 1
    45   27   46 1
    46   28   29 ar
    47   29   30 ar
    48   29   47 1
    49   30   31 ar
@<TRIPOS>SUBSTRUCTURE
     1 ACP         1 GROUP 0 A     ****
@<TRIPOS>MOLECULE
[[5-(6-aminopurin-9-yl)-3,4-dihydroxy-tetrahydrofuran-2-yl]methoxy-oxido-phosphoryl]oxy-(phosphonomethyl)phosphinate
   47    49     1     0     0
SMALL
USER_CHARGES

@<TRIPOS>ATOM
      1 PG         -0.5637    5.2639    6.1262 P.3       1 ACP         1.6478
      2 O1G         0.4857    6.3204    6.2992 O.2       1 ACP        -0.9103
      3 O2G        -1.1627    4.6499    7.4952 O.3       1 ACP        -0.7989
      4 O3G        -0.1017    3.9581    5.2948 O.3       1 ACP        -0.7989
      5 PB         -1.9902    6.4636    3.5078 P.3       1 ACP         1.4947
      6 O1B        -1.0936    7.6800    3.5092 O.co2     1 ACP        -0.8554
      7 O2B        -3.4144    6.5112    3.0049 O.co2     1 ACP        -0.8554
      8 C3B        -2.0384    5.8159    5.2396 C.3       1 ACP        -0.6550
      9 PA         -0.5788    5.0300    1.3263 P.3       1 ACP         1.5921
     10 O1A         0.5648    6.0081    1.1646 O.co2     1 ACP        -0.8561
     11 O2A        -1.7187    5.0058    0.3313 O.co2     1 ACP        -0.8561
     12 O3A        -1.2048    5.2086    2.8242 O.3       1 ACP        -0.8166
     13 O5'         0.0182    3.5132    1.4596 O.3       1 ACP        -0.5737
     14 C5'        -0.8811    2.4285    1.6206 C.3       1 ACP         0.2197
     15 C4'        -0.1994    1.3333    2.4288 C.3       1 ACP         0.0944
     16 O4'        -1.1285    0.2356    2.5840 O.3       1 ACP        -0.4017
     17 C3'         1.0324    0.7610    1.7344 C.3       1 ACP         0.0859
     18 O3'         1.9175    0.2377    2.7247 O.3       1 ACP        -0.5941
     19 C2'         0.4468   -0.3802    0.9263 C.3       1 ACP         0.0924
     20 O2'         1.3993   -1.3703    0.5961 O.3       1 ACP        -0.5928
     21 C1'        -0.6159   -0.9100    1.8769 C.3       1 ACP         0.3967
     22 N9         -1.7127   -1.6108    1.2130 N.pl3     1 ACP        -0.6763
     23 C8         -1.7712   -2.9546    0.9544 C.ar      1 ACP         0.5586
     24 N7         -2.8883   -3.2948    0.3462 N.2       1 ACP        -0.5795
     25 C5         -3.5834   -2.1202    0.2043 C.ar      1 ACP        -0.2116
     26 C6         -4.8225   -1.8251   -0.3554 C.ar      1 ACP         0.7185
     27 N6         -5.6154   -2.8394   -0.9189 N.pl3     1 ACP        -0.9442
     28 N1         -5.2589   -0.5425   -0.3507 N.ar      1 ACP        -0.8040
     29 C2         -4.4510    0.3913    0.2069 C.ar      1 ACP         0.6560
     30 N3         -3.2368    0.2296    0.7767 N.ar      1 ACP        -0.7058
     31 C4         -2.8684   -1.0596    0.7376 C.ar      1 ACP         0.5729
     32 HOG2       -0.5544    4.2032    8.1217 H         1 ACP         0.4440
     33 HOG3        0.6464    3.4205    5.6315 H         1 ACP         0.4440
     34 H3B1       -2.7461    4.9794    5.2212 H         1 ACP         0.1084
     35 H3B2       -2.4961    6.6084    5.8426 H         1 ACP         0.1084
     36 H5'1       -1.7769    2.7852    2.1386 H         1 ACP         0.0281
     37 H5'2       -1.1652    2.0544    0.6320 H         1 ACP         0.0281
     38 H4'         0.0403    1.7078    3.4343 H         1 ACP         0.1082
     39 H3'         1.5906    1.4859    1.1353 H         1 ACP         0.0650
     40 HO3'        2.6839   -0.1150    2.2479 H         1 ACP         0.4300
     41 H2'        -0.0017    0.0018    0.0005 H         1 ACP         0.0785
     42 HO2'        2.0953   -0.9375    0.0709 H         1 ACP         0.4275
     43 H1'        -0.1998   -1.6319    2.6178 H         1 ACP         0.1009
     44 H8         -0.9745   -3.6312    1.2318 H         1 ACP         0.1067
     45 HN61       -5.2619   -3.7766   -0.9586 H         1 ACP         0.4213
     46 HN62       -6.4834   -2.5990   -1.3590 H         1 ACP         0.4213
     47 H2         -4.8317    1.4071    0.1930 H         1 ACP         0.0365
@<TRIPOS>BOND
     1    1    2 2
     2    1    3 1
     3    1    4 1
     4    1    8 1
     5    3   32 1
     6    4   33 1
     7    5    6 2
     8    5    7 1
     9    5    8 1
    10    5   12 1
    11    8   34 1
    12    8   35 1
    13    9   10 2
    14    9   11 1
    15    9   12 1
    16    9   13 1
    17   13   14 1
    18   14   15 1
    19   14   36 1
    20   14   37 1
    21   15   16 1
    22   15   17 1
    23   15   38 1
    24   16   21 1
    25   17   18 1
    26   17   19 1
    27   17   39 1
    28   18   40 1
    29   19   20 1
    30   19   21 1
    31   19   41 1
    32   20   42 1
    33   21   22 1
    34   21   43 1
    35   22   23 ar
    36   22   31 ar
    37   23   24 ar
    38   23   44 1
    39   24   25 ar
    40   25   26 ar
    41   25   31 ar
    42   26   27 1
    43   26   28 ar
    44   27   45 1
    45   27   46 1
    46   28   29 ar
    47   29   30 ar
    48   29   47 1
    49   30   31 ar
@<TRIPOS>SUBSTRUCTURE
     1 ACP         1 GROUP 0 A     ****
@<TRIPOS>MOLECULE
[[5-(6-aminopurin-9-yl)-3,4-dihydroxy-tetrahydrofuran-2-yl]methoxy-oxido-phosphoryl]oxy-(phosphonomethyl)phosphinate
   47    49     1     0     0
SMALL
USER_CHARGES

@<TRIPOS>ATOM
      1 PG          1.2948    8.1585    2.9366 P.3       1 ACP         1.6478
      2 O1G         0.4813    9.0668    3.8086 O.2       1 ACP        -0.9103
      3 O2G         2.7880    8.6748    2.5988 O.3       1 ACP        -0.7989
      4 O3G         0.6637    7.8452    1.4830 O.3       1 ACP        -0.7989
      5 PB          0.1959    5.3518    4.0522 P.3       1 ACP         1.4947
      6 O1B        -0.6657    6.0375    5.0871 O.co2     1 ACP        -0.8554
      7 O2B         0.8101    3.9911    4.2865 O.co2     1 ACP        -0.8554
      8 C3B         1.5723    6.5123    3.6284 C.3       1 ACP        -0.6550
      9 PA         -2.0037    4.7529    2.1525 P.3       1 ACP         1.5921
     10 O1A        -2.1554    4.9422    0.6587 O.co2     1 ACP        -0.8561
     11 O2A        -3.0660    5.2571    3.1051 O.co2     1 ACP        -0.8561
     12 O3A        -0.5638    5.3737    2.6095 O.3       1 ACP        -0.8166
     13 O5'        -1.7337    3.1724    2.4754 O.3       1 ACP        -0.5737
     14 C5'        -0.8811    2.4285    1.6206 C.3       1 ACP         0.2197
     15 C4'        -0.1994    1.3333    2.4288 C.3       1 ACP         0.0944
     16 O4'        -1.1285    0.2356    2.5840 O.3       1 ACP        -0.4017
     17 C3'         1.0324    0.7610    1.7344 C.3       1 ACP         0.0859
     18 O3'         1.9175    0.2377    2.7247 O.3       1 ACP        -0.5941
     19 C2'         0.4468   -0.3802    0.9263 C.3       1 ACP         0.0924
     20 O2'         1.3993   -1.3703    0.5961 O.3       1 ACP        -0.5928
     21 C1'        -0.6159   -0.9100    1.8769 C.3       1 ACP         0.3967
     22 N9         -1.7127   -1.6108    1.2130 N.pl3     1 ACP        -0.6763
     23 C8         -2.8641   -1.0399    0.7392 C.ar      1 ACP         0.5586
     24 N7         -3.6659   -1.9257    0.1858 N.2       1 ACP        -0.5795
     25 C5         -3.0053   -3.1223    0.3069 C.ar      1 ACP        -0.2116
     26 C6         -3.3321   -4.4178   -0.0813 C.ar      1 ACP         0.7185
     27 N6         -4.5476   -4.6866   -0.7335 N.pl3     1 ACP        -0.9442
     28 N1         -2.4608   -5.4225    0.1773 N.ar      1 ACP        -0.8040
     29 C2         -1.3053   -5.1020    0.8081 C.ar      1 ACP         0.6560
     30 N3         -0.8788   -3.8921    1.2315 N.ar      1 ACP        -0.7058
     31 C4         -1.7870   -2.9477    0.9438 C.ar      1 ACP         0.5729
     32 HOG2        2.9006    9.5288    2.1296 H         1 ACP         0.4440
     33 HOG3        0.4964    8.5900    0.8670 H         1 ACP         0.4440
     34 H3B1        2.2151    5.9640    2.9305 H         1 ACP         0.1084
     35 H3B2        2.1458    6.6464    4.5527 H         1 ACP         0.1084
     36 H5'1       -1.4802    1.9929    0.8148 H         1 ACP         0.0281
     37 H5'2       -0.1370    3.1043    1.1873 H         1 ACP         0.0281
     38 H4'         0.0403    1.7078    3.4343 H         1 ACP         0.1082
     39 H3'         1.5906    1.4859    1.1353 H         1 ACP         0.0650
     40 HO3'        2.6839   -0.1150    2.2479 H         1 ACP         0.4300
     41 H2'        -0.0017    0.0018    0.0005 H         1 ACP         0.0785
     42 HO2'        2.0953   -0.9375    0.0709 H         1 ACP         0.4275
     43 H1'        -0.1998   -1.6319    2.6178 H         1 ACP         0.1009
     44 H8         -3.0609    0.0200    0.8250 H         1 ACP         0.1067
     45 HN61       -5.2046   -3.9433   -0.8775 H         1 ACP         0.4213
     46 HN62       -4.7849   -5.6332   -0.9625 H         1 ACP         0.4213
     47 H2         -0.6318   -5.9307    0.9993 H         1 ACP         0.0365
@<TRIPOS>BOND
     1    1    2 2
     2    1    3 1
     3    1    4 1
     4    1    8 1
     5    3   32 1
     6    4   33 1
     7    5    6 2
     8    5    7 1
     9    5    8 1
    10    5   12 1
    11    8   34 1
    12    8   35 1
    13    9   10 2
    14    9   11 1
    15    9   12 1
    16    9   13 1
    17   13   14 1
    18   14   15 1
    19   14   36 1
    20   14   37 1
    21   15   16 1
    22   15   17 1
    23   15   38 1
    24   16   21 1
    25   17   18 1
    26   17   19 1
    27   17   39 1
    28   18   40 1
    29   19   20 1
    30   19   21 1
    31   19   41 1
    32   20   42 1
    33   21   22 1
    34   21   43 1
    35   22   23 ar
    36   22   31 ar
    37   23   24 ar
    38   23   44 1
    39   24   25 ar
    40   25   26 ar
    41   25   31 ar
    42   26   27 1
    43   26   28 ar
    44   27   45 1
    45   27   46 1
    46   28   29 ar
    47   29   30 ar
    48   29   47 1
    49   30   31 ar
@<TRIPOS>SUBSTRUCTURE
     1 ACP         1 GROUP 0 A     ****
@<TRIPOS>MOLECULE
[[5-(6-aminopurin-9-yl)-3,4-dihydroxy-tetrahydrofuran-2-yl]methoxy-oxido-phosphoryl]oxy-(phosphonomethyl)phosphinate
   47    49     1     0     0
SMALL
USER_CHARGES

@<TRIPOS>ATOM
      1 PG         -4.8358    4.5962    0.8502 P.3       1 ACP         1.6478
      2 O1G        -4.9137    3.6763    2.0312 O.2       1 ACP        -0.9103
      3 O2G        -6.2518    5.1632    0.3174 O.3       1 ACP        -0.7989
      4 O3G        -4.1563    3.9678   -0.4739 O.3       1 ACP        -0.7989
      5 PB         -2.0802    6.0698    1.6018 P.3       1 ACP         1.4947
      6 O1B        -1.9678    5.3144    2.9058 O.co2     1 ACP        -0.8554
      7 O2B        -1.5503    7.4751    1.4348 O.co2     1 ACP        -0.8554
      8 C3B        -3.8699    6.0965    1.1361 C.3       1 ACP        -0.6550
      9 PA         -0.0885    4.4445    0.1193 P.3       1 ACP         1.5921
     10 O1A         0.9671    5.5276    0.1742 O.co2     1 ACP        -0.8561
     11 O2A        -0.1962    3.5335   -1.0842 O.co2     1 ACP        -0.8561
     12 O3A        -1.5478    5.1301    0.3800 O.3       1 ACP        -0.8166
     13 O5'         0.0182    3.5132    1.4596 O.3       1 ACP        -0.5737
     14 C5'        -0.8811    2.4285    1.6206 C.3       1 ACP         0.2197
     15 C4'        -0.1994    1.3333    2.4288 C.3       1 ACP         0.0944
     16 O4'        -1.1285    0.2356    2.5840 O.3       1 ACP        -0.4017
     17 C3'         1.0324    0.7610    1.7344 C.3       1 ACP         0.0859
     18 O3'         1.9175    0.2377    2.7247 O.3       1 ACP        -0.5941
     19 C2'         0.4468   -0.3802    0.9263 C.3       1 ACP         0.0924
     20 O2'         1.3993   -1.3703    0.5961 O.3       1 ACP        -0.5928
     21 C1'        -0.6159   -0.9100    1.8769 C.3       1 ACP         0.3967
     22 N9         -1.7127   -1.6108    1.2130 N.pl3     1 ACP        -0.6763
     23 C8         -1.7712   -2.9546    0.9544 C.ar      1 ACP         0.5586
     24 N7         -2.8883   -3.2948    0.3462 N.2       1 ACP        -0.5795
     25 C5         -3.5834   -2.1202    0.2043 C.ar      1 ACP        -0.2116
     26 C6         -4.8225   -1.8251   -0.3554 C.ar      1 ACP         0.7185
     27 N6         -5.6154   -2.8394   -0.9189 N.pl3     1 ACP        -0.9442
     28 N1         -5.2589   -0.5425   -0.3507 N.ar      1 ACP        -0.8040
     29 C2         -4.4510    0.3913    0.2069 C.ar      1 ACP         0.6560
     30 N3         -3.2368    0.2296    0.7767 N.ar      1 ACP        -0.7058
     31 C4         -2.8684   -1.0596    0.7376 C.ar      1 ACP         0.5729
     32 HOG2       -6.9327    4.5276    0.0102 H         1 ACP         0.4440
     33 HOG3       -4.5613    3.1748   -0.8851 H         1 ACP         0.4440
     34 H3B1       -3.9283    6.7060    0.2272 H         1 ACP         0.1084
     35 H3B2       -4.3771    6.6570    1.9296 H         1 ACP         0.1084
     36 H5'1       -1.7769    2.7852    2.1386 H         1 ACP         0.0281
     37 H5'2       -1.1652    2.0544    0.6320 H         1 ACP         0.0281
     38 H4'         0.0403    1.7078    3.4343 H         1 ACP         0.1082
     39 H3'         1.5906    1.4859    1.1353 H         1 ACP         0.0650
     40 HO3'        2.6839   -0.1150    2.2479 H         1 ACP         0.4300
     41 H2'        -0.0017    0.0018    0.0005 H         1 ACP         0.0785
     42 HO2'        2.0953   -0.9375    0.0709 H         1 ACP         0.4275
     43 H1'        -0.1998   -1.6319    2.6178 H         1 ACP         0.1009
     44 H8         -0.9745   -3.6312    1.2318 H         1 ACP         0.1067
     45 HN61       -5.2619   -3.7766   -0.9586 H         1 ACP         0.4213
     46 HN62       -6.4834   -2.5990   -1.3590 H         1 ACP         0.4213
     47 H2         -4.8317    1.4071    0.1930 H         1 ACP         0.0365
@<TRIPOS>BOND
     1    1    2 2
     2    1    3 1
     3    1    4 1
     4    1    8 1
     5    3   32 1
     6    4   33 1
     7    5    6 2
     8    5    7 1
     9    5    8 1
    10    5   12 1
    11    8   34 1
    12    8   35 1
    13    9   10 2
    14    9   11 1
    15    9   12 1
    16    9   13 1
    17   13   14 1
    18   14   15 1
    19   14   36 1
    20   14   37 1
    21   15   16 1
    22   15   17 1
    23   15   38 1
    24   16   21 1
    25   17   18 1
    26   17   19 1
    27   17   39 1
    28   18   40 1
    29   19   20 1
    30   19   21 1
    31   19   41 1
    32   20   42 1
    33   21   22 1
    34   21   43 1
    35   22   23 ar
    36   22   31 ar
    37   23   24 ar
    38   23   44 1
    39   24   25 ar
    40   25   26 ar
    41   25   31 ar
    42   26   27 1
    43   26   28 ar
    44   27   45 1
    45   27   46 1
    46   28   29 ar
    47   29   30 ar
    48   29   47 1
    49   30   31 ar
@<TRIPOS>SUBSTRUCTURE
     1 ACP         1 GROUP 0 A     ****
@<TRIPOS>MOLECULE
[[5-(6-aminopurin-9-yl)-3,4-dihydroxy-tetrahydrofuran-2-yl]methoxy-oxido-phosphoryl]oxy-(phosphonomethyl)phosphinate
   47    49     1     0     0
SMALL
USER_CHARGES

@<TRIPOS>ATOM
      1 PG         -1.8990    8.1033    2.1010 P.3       1 ACP         1.6478
      2 O1G        -1.5195    7.1196    3.1667 O.2       1 ACP        -0.9103
      3 O2G        -0.8296    9.2847    1.8344 O.3       1 ACP        -0.7989
      4 O3G        -3.2848    8.8950    2.3506 O.3       1 ACP        -0.7989
      5 PB         -3.3865    6.0658    0.1095 P.3       1 ACP         1.4947
      6 O1B        -3.2732    5.7202   -1.3572 O.co2     1 ACP        -0.8554
      7 O2B        -4.6881    6.5096    0.7360 O.co2     1 ACP        -0.8554
      8 C3B        -2.1297    7.3759    0.4629 C.3       1 ACP        -0.6550
      9 PA         -3.3163    3.4232    1.4578 P.3       1 ACP         1.5921
     10 O1A        -3.5051    2.5730    0.2200 O.co2     1 ACP        -0.8561
     11 O2A        -4.4645    3.6557    2.4157 O.co2     1 ACP        -0.8561
     12 O3A        -2.7215    4.8747    1.0030 O.3       1 ACP        -0.8166
     13 O5'        -2.0402    2.8619    2.3132 O.3       1 ACP        -0.5737
     14 C5'        -0.8811    2.4285    1.6206 C.3       1 ACP         0.2197
     15 C4'        -0.1994    1.3333    2.4288 C.3       1 ACP         0.0944
     16 O4'        -1.1285    0.2356    2.5840 O.3       1 ACP        -0.4017
     17 C3'         1.0324    0.7610    1.7344 C.3       1 ACP         0.0859
     18 O3'         1.9175    0.2377    2.7247 O.3       1 ACP        -0.5941
     19 C2'         0.4468   -0.3802    0.9263 C.3       1 ACP         0.0924
     20 O2'         1.3993   -1.3703    0.5961 O.3       1 ACP        -0.5928
     21 C1'        -0.6159   -0.9100    1.8769 C.3       1 ACP         0.3967
     22 N9         -1.7127   -1.6108    1.2130 N.pl3     1 ACP        -0.6763
     23 C8         -2.8641   -1.0399    0.7392 C.ar      1 ACP         0.5586
     24 N7         -3.6659   -1.9257    0.1858 N.2       1 ACP        -0.5795
     25 C5         -3.0053   -3.1223    0.3069 C.ar      1 ACP        -0.2116
     26 C6         -3.3321   -4.4178   -0.0813 C.ar      1 ACP         0.7185
     27 N6         -4.5476   -4.6866   -0.7335 N.pl3     1 ACP        -0.9442
     28 N1         -2.4608   -5.4225    0.1773 N.ar      1 ACP        -0.8040
     29 C2         -1.3053   -5.1020    0.8081 C.ar      1 ACP         0.6560
     30 N3         -0.8788   -3.8921    1.2315 N.ar      1 ACP        -0.7058
     31 C4         -1.7870   -2.9477    0.9438 C.ar      1 ACP         0.5729
     32 HOG2       -0.5985    9.8911    2.5699 H         1 ACP         0.4440
     33 HOG3       -3.3769    9.4500    3.1541 H         1 ACP         0.4440
     34 H3B1       -2.3520    8.1923   -0.2335 H         1 ACP         0.1084
     35 H3B2       -1.1643    6.9533    0.1618 H         1 ACP         0.1084
     36 H5'1       -1.1771    2.0504    0.6370 H         1 ACP         0.0281
     37 H5'2       -0.2083    3.2816    1.4878 H         1 ACP         0.0281
     38 H4'         0.0403    1.7078    3.4343 H         1 ACP         0.1082
     39 H3'         1.5906    1.4859    1.1353 H         1 ACP         0.0650
     40 HO3'        2.6839   -0.1150    2.2479 H         1 ACP         0.4300
     41 H2'        -0.0017    0.0018    0.0005 H         1 ACP         0.0785
     42 HO2'        2.0953   -0.9375    0.0709 H         1 ACP         0.4275
     43 H1'        -0.1998   -1.6319    2.6178 H         1 ACP         0.1009
     44 H8         -3.0609    0.0200    0.8250 H         1 ACP         0.1067
     45 HN61       -5.2046   -3.9433   -0.8775 H         1 ACP         0.4213
     46 HN62       -4.7849   -5.6332   -0.9625 H         1 ACP         0.4213
     47 H2         -0.6318   -5.9307    0.9993 H         1 ACP         0.0365
@<TRIPOS>BOND
     1    1    2 2
     2    1    3 1
     3    1    4 1
     4    1    8 1
     5    3   32 1
     6    4   33 1
     7    5    6 2
     8    5    7 1
     9    5    8 1
    10    5   12 1
    11    8   34 1
    12    8   35 1
    13    9   10 2
    14    9   11 1
    15    9   12 1
    16    9   13 1
    17   13   14 1
    18   14   15 1
    19   14   36 1
    20   14   37 1
    21   15   16 1
    22   15   17 1
    23   15   38 1
    24   16   21 1
    25   17   18 1
    26   17   19 1
    27   17   39 1
    28   18   40 1
    29   19   20 1
    30   19   21 1
    31   19   41 1
    32   20   42 1
    33   21   22 1
    34   21   43 1
    35   22   23 ar
    36   22   31 ar
    37   23   24 ar
    38   23   44 1
    39   24   25 ar
    40   25   26 ar
    41   25   31 ar
    42   26   27 1
    43   26   28 ar
    44   27   45 1
    45   27   46 1
    46   28   29 ar
    47   29   30 ar
    48   29   47 1
    49   30   31 ar
@<TRIPOS>SUBSTRUCTURE
     1 ACP         1 GROUP 0 A     ****
@<TRIPOS>MOLECULE
[[5-(6-aminopurin-9-yl)-3,4-dihydroxy-tetrahydrofuran-2-yl]methoxy-oxido-phosphoryl]oxy-(phosphonomethyl)phosphinate
   47    49     1     0     0
SMALL
USER_CHARGES

@<TRIPOS>ATOM
      1 PG         -4.8358    4.5962    0.8502 P.3       1 ACP         1.6478
      2 O1G        -4.9137    3.6763    2.0312 O.2       1 ACP        -0.9103
      3 O2G        -6.2518    5.1632    0.3174 O.3       1 ACP        -0.7989
      4 O3G        -4.1563    3.9678   -0.4739 O.3       1 ACP        -0.7989
      5 PB         -2.0802    6.0698    1.6018 P.3       1 ACP         1.4947
      6 O1B        -1.9678    5.3144    2.9058 O.co2     1 ACP        -0.8554
      7 O2B        -1.5503    7.4751    1.4348 O.co2     1 ACP        -0.8554
      8 C3B        -3.8699    6.0965    1.1361 C.3       1 ACP        -0.6550
      9 PA         -0.0885    4.4445    0.1193 P.3       1 ACP         1.5921
     10 O1A         0.9671    5.5276    0.1742 O.co2     1 ACP        -0.8561
     11 O2A        -0.1962    3.5335   -1.0842 O.co2     1 ACP        -0.8561
     12 O3A        -1.5478    5.1301    0.3800 O.3       1 ACP        -0.8166
     13 O5'         0.0182    3.5132    1.4596 O.3       1 ACP        -0.5737
     14 C5'        -0.8811    2.4285    1.6206 C.3       1 ACP         0.2197
     15 C4'        -0.1994    1.3333    2.4288 C.3       1 ACP         0.0944
     16 O4'        -1.1285    0.2356    2.5840 O.3       1 ACP        -0.4017
     17 C3'         1.0324    0.7610    1.7344 C.3       1 ACP         0.0859
     18 O3'         1.9175    0.2377    2.7247 O.3       1 ACP        -0.5941
     19 C2'         0.4468   -0.3802    0.9263 C.3       1 ACP         0.0924
     20 O2'         1.3993   -1.3703    0.5961 O.3       1 ACP        -0.5928
     21 C1'        -0.6159   -0.9100    1.8769 C.3       1 ACP         0.3967
     22 N9         -1.7127   -1.6108    1.2130 N.pl3     1 ACP        -0.6763
     23 C8         -2.8641   -1.0399    0.7392 C.ar      1 ACP         0.5586
     24 N7         -3.6659   -1.9257    0.1858 N.2       1 ACP        -0.5795
     25 C5         -3.0053   -3.1223    0.3069 C.ar      1 ACP        -0.2116
     26 C6         -3.3321   -4.4178   -0.0813 C.ar      1 ACP         0.7185
     27 N6         -4.5476   -4.6866   -0.7335 N.pl3     1 ACP        -0.9442
     28 N1         -2.4608   -5.4225    0.1773 N.ar      1 ACP        -0.8040
     29 C2         -1.3053   -5.1020    0.8081 C.ar      1 ACP         0.6560
     30 N3         -0.8788   -3.8921    1.2315 N.ar      1 ACP        -0.7058
     31 C4         -1.7870   -2.9477    0.9438 C.ar      1 ACP         0.5729
     32 HOG2       -6.9327    4.5276    0.0102 H         1 ACP         0.4440
     33 HOG3       -4.5613    3.1748   -0.8851 H         1 ACP         0.4440
     34 H3B1       -3.9283    6.7060    0.2272 H         1 ACP         0.1084
     35 H3B2       -4.3771    6.6570    1.9296 H         1 ACP         0.1084
     36 H5'1       -1.7769    2.7852    2.1386 H         1 ACP         0.0281
     37 H5'2       -1.1652    2.0544    0.6320 H         1 ACP         0.0281
     38 H4'         0.0403    1.7078    3.4343 H         1 ACP         0.1082
     39 H3'         1.5906    1.4859    1.1353 H         1 ACP         0.0650
     40 HO3'        2.1521    0.9800    3.3017 H         1 ACP         0.4300
     41 H2'        -0.0017    0.0018    0.0005 H         1 ACP         0.0785
     42 HO2'        0.9369   -2.0558    0.0825 H         1 ACP         0.4275
     43 H1'        -0.1998   -1.6319    2.6178 H         1 ACP         0.1009
     44 H8         -3.0609    0.0200    0.8250 H         1 ACP         0.1067
     45 HN61       -5.2046   -3.9433   -0.8775 H         1 ACP         0.4213
     46 HN62       -4.7849   -5.6332   -0.9625 H         1 ACP         0.4213
     47 H2         -0.6318   -5.9307    0.9993 H         1 ACP         0.0365
@<TRIPOS>BOND
     1    1    2 2
     2    1    3 1
     3    1    4 1
     4    1    8 1
     5    3   32 1
     6    4   33 1
     7    5    6 2
     8    5    7 1
     9    5    8 1
    10    5   12 1
    11    8   34 1
    12    8   35 1
    13    9   10 2
    14    9   11 1
    15    9   12 1
    16    9   13 1
    17   13   14 1
    18   14   15 1
    19   14   36 1
    20   14   37 1
    21   15   16 1
    22   15   17 1
    23   15   38 1
    24   16   21 1
    25   17   18 1
    26   17   19 1
    27   17   39 1
    28   18   40 1
    29   19   20 1
    30   19   21 1
    31   19   41 1
    32   20   42 1
    33   21   22 1
    34   21   43 1
    35   22   23 ar
    36   22   31 ar
    37   23   24 ar
    38   23   44 1
    39   24   25 ar
    40   25   26 ar
    41   25   31 ar
    42   26   27 1
    43   26   28 ar
    44   27   45 1
    45   27   46 1
    46   28   29 ar
    47   29   30 ar
    48   29   47 1
    49   30   31 ar
@<TRIPOS>SUBSTRUCTURE
     1 ACP         1 GROUP 0 A     ****
@<TRIPOS>MOLECULE
[[5-(6-aminopurin-9-yl)-3,4-dihydroxy-tetrahydrofuran-2-yl]methoxy-oxido-phosphoryl]oxy-(phosphonomethyl)phosphinate
   47    49     1     0     0
SMALL
USER_CHARGES

@<TRIPOS>ATOM
      1 PG         -5.3062    4.2149    3.1099 P.3       1 ACP         1.6478
      2 O1G        -6.2873    4.0114    1.9949 O.2       1 ACP        -0.9103
      3 O2G        -4.1143    3.1274    3.1928 O.3       1 ACP        -0.7989
      4 O3G        -5.9356    4.2021    4.5976 O.3       1 ACP        -0.7989
      5 PB         -3.3560    6.2948    1.6265 P.3       1 ACP         1.4947
      6 O1B        -2.8000    7.6632    1.9459 O.co2     1 ACP        -0.8554
      7 O2B        -4.1304    6.0137    0.3596 O.co2     1 ACP        -0.8554
      8 C3B        -4.4251    5.7915    3.0493 C.3       1 ACP        -0.6550
      9 PA         -0.7382    5.0055    1.0868 P.3       1 ACP         1.5921
     10 O1A         0.1355    6.1779    1.4774 O.co2     1 ACP        -0.8561
     11 O2A        -0.9749    4.6722   -0.3702 O.co2     1 ACP        -0.8561
     12 O3A        -2.1880    5.1734    1.8200 O.3       1 ACP        -0.8166
     13 O5'        -0.2059    3.6558    1.8419 O.3       1 ACP        -0.5737
     14 C5'        -0.8811    2.4285    1.6206 C.3       1 ACP         0.2197
     15 C4'        -0.1994    1.3333    2.4288 C.3       1 ACP         0.0944
     16 O4'        -1.1285    0.2356    2.5840 O.3       1 ACP        -0.4017
     17 C3'         1.0324    0.7610    1.7344 C.3       1 ACP         0.0859
     18 O3'         1.9175    0.2377    2.7247 O.3       1 ACP        -0.5941
     19 C2'         0.4468   -0.3802    0.9263 C.3       1 ACP         0.0924
     20 O2'         1.3993   -1.3703    0.5961 O.3       1 ACP        -0.5928
     21 C1'        -0.6159   -0.9100    1.8769 C.3       1 ACP         0.3967
     22 N9         -1.7127   -1.6108    1.2130 N.pl3     1 ACP        -0.6763
     23 C8         -1.7712   -2.9546    0.9544 C.ar      1 ACP         0.5586
     24 N7         -2.8883   -3.2948    0.3462 N.2       1 ACP        -0.5795
     25 C5         -3.5834   -2.1202    0.2043 C.ar      1 ACP        -0.2116
     26 C6         -4.8225   -1.8251   -0.3554 C.ar      1 ACP         0.7185
     27 N6         -5.6154   -2.8394   -0.9189 N.pl3     1 ACP        -0.9442
     28 N1         -5.2589   -0.5425   -0.3507 N.ar      1 ACP        -0.8040
     29 C2         -4.4510    0.3913    0.2069 C.ar      1 ACP         0.6560
     30 N3         -3.2368    0.2296    0.7767 N.ar      1 ACP        -0.7058
     31 C4         -2.8684   -1.0596    0.7376 C.ar      1 ACP         0.5729
     32 HOG2       -4.3419    2.1818    3.3191 H         1 ACP         0.4440
     33 HOG3       -6.4032    3.3980    4.9088 H         1 ACP         0.4440
     34 H3B1       -5.1679    6.5901    3.1561 H         1 ACP         0.1084
     35 H3B2       -3.7821    5.8327    3.9359 H         1 ACP         0.1084
     36 H5'1       -1.9255    2.5383    1.9294 H         1 ACP         0.0281
     37 H5'2       -0.8472    2.1934    0.5521 H         1 ACP         0.0281
     38 H4'         0.0403    1.7078    3.4343 H         1 ACP         0.1082
     39 H3'         1.5906    1.4859    1.1353 H         1 ACP         0.0650
     40 HO3'        2.1521    0.9800    3.3017 H         1 ACP         0.4300
     41 H2'        -0.0017    0.0018    0.0005 H         1 ACP         0.0785
     42 HO2'        0.9369   -2.0558    0.0825 H         1 ACP         0.4275
     43 H1'        -0.1998   -1.6319    2.6178 H         1 ACP         0.1009
     44 H8         -0.9745   -3.6312    1.2318 H         1 ACP         0.1067
     45 HN61       -5.2619   -3.7766   -0.9586 H         1 ACP         0.4213
     46 HN62       -6.4834   -2.5990   -1.3590 H         1 ACP         0.4213
     47 H2         -4.8317    1.4071    0.1930 H         1 ACP         0.0365
@<TRIPOS>BOND
     1    1    2 2
     2    1    3 1
     3    1    4 1
     4    1    8 1
     5    3   32 1
     6    4   33 1
     7    5    6 2
     8    5    7 1
     9    5    8 1
    10    5   12 1
    11    8   34 1
    12    8   35 1
    13    9   10 2
    14    9   11 1
    15    9   12 1
    16    9   13 1
    17   13   14 1
    18   14   15 1
    19   14   36 1
    20   14   37 1
    21   15   16 1
    22   15   17 1
    23   15   38 1
    24   16   21 1
    25   17   18 1
    26   17   19 1
    27   17   39 1
    28   18   40 1
    29   19   20 1
    30   19   21 1
    31   19   41 1
    32   20   42 1
    33   21   22 1
    34   21   43 1
    35   22   23 ar
    36   22   31 ar
    37   23   24 ar
    38   23   44 1
    39   24   25 ar
    40   25   26 ar
    41   25   31 ar
    42   26   27 1
    43   26   28 ar
    44   27   45 1
    45   27   46 1
    46   28   29 ar
    47   29   30 ar
    48   29   47 1
    49   30   31 ar
@<TRIPOS>SUBSTRUCTURE
     1 ACP         1 GROUP 0 A     ****
@<TRIPOS>MOLECULE
[[5-(6-aminopurin-9-yl)-3,4-dihydroxy-tetrahydrofuran-2-yl]methoxy-oxido-phosphoryl]oxy-(phosphonomethyl)phosphinate
   47    49     1     0     0
SMALL
USER_CHARGES

@<TRIPOS>ATOM
      1 PG         -0.2700    7.8163    0.4198 P.3       1 ACP         1.6478
      2 O1G        -0.7788    9.0373    1.1250 O.2       1 ACP        -0.9103
      3 O2G         0.2949    6.6455    1.3792 O.3       1 ACP        -0.7989
      4 O3G         0.9392    8.0705   -0.6208 O.3       1 ACP        -0.7989
      5 PB         -3.0694    6.2670    0.1147 P.3       1 ACP         1.4947
      6 O1B        -3.8339    5.6429   -1.0296 O.co2     1 ACP        -0.8554
      7 O2B        -3.6749    7.3243    1.0085 O.co2     1 ACP        -0.8554
      8 C3B        -1.5073    6.9664   -0.5864 C.3       1 ACP        -0.6550
      9 PA         -3.0799    3.8626    1.8539 P.3       1 ACP         1.5921
     10 O1A        -3.7199    2.9140    0.8633 O.co2     1 ACP        -0.8561
     11 O2A        -3.8856    4.4438    2.9954 O.co2     1 ACP        -0.8561
     12 O3A        -2.3969    5.0932    1.0252 O.3       1 ACP        -0.8166
     13 O5'        -1.7337    3.1724    2.4754 O.3       1 ACP        -0.5737
     14 C5'        -0.8811    2.4285    1.6206 C.3       1 ACP         0.2197
     15 C4'        -0.1994    1.3333    2.4288 C.3       1 ACP         0.0944
     16 O4'        -1.1285    0.2356    2.5840 O.3       1 ACP        -0.4017
     17 C3'         1.0324    0.7610    1.7344 C.3       1 ACP         0.0859
     18 O3'         1.9175    0.2377    2.7247 O.3       1 ACP        -0.5941
     19 C2'         0.4468   -0.3802    0.9263 C.3       1 ACP         0.0924
     20 O2'         1.3993   -1.3703    0.5961 O.3       1 ACP        -0.5928
     21 C1'        -0.6159   -0.9100    1.8769 C.3       1 ACP         0.3967
     22 N9         -1.7127   -1.6108    1.2130 N.pl3     1 ACP        -0.6763
     23 C8         -2.8641   -1.0399    0.7392 C.ar      1 ACP         0.5586
     24 N7         -3.6659   -1.9257    0.1858 N.2       1 ACP        -0.5795
     25 C5         -3.0053   -3.1223    0.3069 C.ar      1 ACP        -0.2116
     26 C6         -3.3321   -4.4178   -0.0813 C.ar      1 ACP         0.7185
     27 N6         -4.5476   -4.6866   -0.7335 N.pl3     1 ACP        -0.9442
     28 N1         -2.4608   -5.4225    0.1773 N.ar      1 ACP        -0.8040
     29 C2         -1.3053   -5.1020    0.8081 C.ar      1 ACP         0.6560
     30 N3         -0.8788   -3.8921    1.2315 N.ar      1 ACP        -0.7058
     31 C4         -1.7870   -2.9477    0.9438 C.ar      1 ACP         0.5729
     32 HOG2        1.0497    6.8416    1.9741 H         1 ACP         0.4440
     33 HOG3        1.7787    8.4544   -0.2893 H         1 ACP         0.4440
     34 H3B1       -1.8228    7.6573   -1.3764 H         1 ACP         0.1084
     35 H3B2       -0.9991    6.1293   -1.0784 H         1 ACP         0.1084
     36 H5'1       -1.4802    1.9929    0.8148 H         1 ACP         0.0281
     37 H5'2       -0.1370    3.1043    1.1873 H         1 ACP         0.0281
     38 H4'         0.0403    1.7078    3.4343 H         1 ACP         0.1082
     39 H3'         1.5906    1.4859    1.1353 H         1 ACP         0.0650
     40 HO3'        2.6839   -0.1150    2.2479 H         1 ACP         0.4300
     41 H2'        -0.0017    0.0018    0.0005 H         1 ACP         0.0785
     42 HO2'        2.0953   -0.9375    0.0709 H         1 ACP         0.4275
     43 H1'        -0.1998   -1.6319    2.6178 H         1 ACP         0.1009
     44 H8         -3.0609    0.0200    0.8250 H         1 ACP         0.1067
     45 HN61       -5.2046   -3.9433   -0.8775 H         1 ACP         0.4213
     46 HN62       -4.7849   -5.6332   -0.9625 H         1 ACP         0.4213
     47 H2         -0.6318   -5.9307    0.9993 H         1 ACP         0.0365
@<TRIPOS>BOND
     1    1    2 2
     2    1    3 1
     3    1    4 1
     4    1    8 1
     5    3   32 1
     6    4   33 1
     7    5    6 2
     8    5    7 1
     9    5    8 1
    10    5   12 1
    11    8   34 1
    12    8   35 1
    13    9   10 2
    14    9   11 1
    15    9   12 1
    16    9   13 1
    17   13   14 1
    18   14   15 1
    19   14   36 1
    20   14   37 1
    21   15   16 1
    22   15   17 1
    23   15   38 1
    24   16   21 1
    25   17   18 1
    26   17   19 1
    27   17   39 1
    28   18   40 1
    29   19   20 1
    30   19   21 1
    31   19   41 1
    32   20   42 1
    33   21   22 1
    34   21   43 1
    35   22   23 ar
    36   22   31 ar
    37   23   24 ar
    38   23   44 1
    39   24   25 ar
    40   25   26 ar
    41   25   31 ar
    42   26   27 1
    43   26   28 ar
    44   27   45 1
    45   27   46 1
    46   28   29 ar
    47   29   30 ar
    48   29   47 1
    49   30   31 ar
@<TRIPOS>SUBSTRUCTURE
     1 ACP         1 GROUP 0 A     ****
@<TRIPOS>MOLECULE
[[5-(6-aminopurin-9-yl)-3,4-dihydroxy-tetrahydrofuran-2-yl]methoxy-oxido-phosphoryl]oxy-(phosphonomethyl)phosphinate
   47    49     1     0     0
SMALL
USER_CHARGES

@<TRIPOS>ATOM
      1 PG         -0.2669    8.1128    4.1918 P.3       1 ACP         1.6478
      2 O1G        -1.4258    8.7091    4.9324 O.2       1 ACP        -0.9103
      3 O2G         1.1288    8.9157    4.3246 O.3       1 ACP        -0.7989
      4 O3G        -0.4677    7.9624    2.5960 O.3       1 ACP        -0.7989
      5 PB         -1.0071    5.0129    4.6078 P.3       1 ACP         1.4947
      6 O1B        -2.2048    5.3567    5.4627 O.co2     1 ACP        -0.8554
      7 O2B        -0.2033    3.7502    4.8148 O.co2     1 ACP        -0.8554
      8 C3B         0.1678    6.4376    4.7117 C.3       1 ACP        -0.6550
      9 PA         -2.5401    4.4095    2.1396 P.3       1 ACP         1.5921
     10 O1A        -2.3764    4.8319    0.6956 O.co2     1 ACP        -0.8561
     11 O2A        -3.8732    4.5590    2.8399 O.co2     1 ACP        -0.8561
     12 O3A        -1.4003    5.1652    3.0325 O.3       1 ACP        -0.8166
     13 O5'        -2.0402    2.8619    2.3132 O.3       1 ACP        -0.5737
     14 C5'        -0.8811    2.4285    1.6206 C.3       1 ACP         0.2197
     15 C4'        -0.1994    1.3333    2.4288 C.3       1 ACP         0.0944
     16 O4'        -1.1285    0.2356    2.5840 O.3       1 ACP        -0.4017
     17 C3'         1.0324    0.7610    1.7344 C.3       1 ACP         0.0859
     18 O3'         1.9175    0.2377    2.7247 O.3       1 ACP        -0.5941
     19 C2'         0.4468   -0.3802    0.9263 C.3       1 ACP         0.0924
     20 O2'         1.3993   -1.3703    0.5961 O.3       1 ACP        -0.5928
     21 C1'        -0.6159   -0.9100    1.8769 C.3       1 ACP         0.3967
     22 N9         -1.7127   -1.6108    1.2130 N.pl3     1 ACP        -0.6763
     23 C8         -1.7712   -2.9546    0.9544 C.ar      1 ACP         0.5586
     24 N7         -2.8883   -3.2948    0.3462 N.2       1 ACP        -0.5795
     25 C5         -3.5834   -2.1202    0.2043 C.ar      1 ACP        -0.2116
     26 C6         -4.8225   -1.8251   -0.3554 C.ar      1 ACP         0.7185
     27 N6         -5.6154   -2.8394   -0.9189 N.pl3     1 ACP        -0.9442
     28 N1         -5.2589   -0.5425   -0.3507 N.ar      1 ACP        -0.8040
     29 C2         -4.4510    0.3913    0.2069 C.ar      1 ACP         0.6560
     30 N3         -3.2368    0.2296    0.7767 N.ar      1 ACP        -0.7058
     31 C4         -2.8684   -1.0596    0.7376 C.ar      1 ACP         0.5729
     32 HOG2        1.1730    9.8457    4.0162 H         1 ACP         0.4440
     33 HOG3       -0.6339    8.7669    2.0601 H         1 ACP         0.4440
     34 H3B1        1.0516    6.1324    4.1401 H         1 ACP         0.1084
     35 H3B2        0.4725    6.4979    5.7628 H         1 ACP         0.1084
     36 H5'1       -1.1771    2.0504    0.6370 H         1 ACP         0.0281
     37 H5'2       -0.2083    3.2816    1.4878 H         1 ACP         0.0281
     38 H4'         0.0403    1.7078    3.4343 H         1 ACP         0.1082
     39 H3'         1.5906    1.4859    1.1353 H         1 ACP         0.0650
     40 HO3'        2.6839   -0.1150    2.2479 H         1 ACP         0.4300
     41 H2'        -0.0017    0.0018    0.0005 H         1 ACP         0.0785
     42 HO2'        2.0953   -0.9375    0.0709 H         1 ACP         0.4275
     43 H1'        -0.1998   -1.6319    2.6178 H         1 ACP         0.1009
     44 H8         -0.9745   -3.6312    1.2318 H         1 ACP         0.1067
     45 HN61       -5.2619   -3.7766   -0.9586 H         1 ACP         0.4213
     46 HN62       -6.4834   -2.5990   -1.3590 H         1 ACP         0.4213
     47 H2         -4.8317    1.4071    0.1930 H         1 ACP         0.0365
@<TRIPOS>BOND
     1    1    2 2
     2    1    3 1
     3    1    4 1
     4    1    8 1
     5    3   32 1
     6    4   33 1
     7    5    6 2
     8    5    7 1
     9    5    8 1
    10    5   12 1
    11    8   34 1
    12    8   35 1
    13    9   10 2
    14    9   11 1
    15    9   12 1
    16    9   13 1
    17   13   14 1
    18   14   15 1
    19   14   36 1
    20   14   37 1
    21   15   16 1
    22   15   17 1
    23   15   38 1
    24   16   21 1
    25   17   18 1
    26   17   19 1
    27   17   39 1
    28   18   40 1
    29   19   20 1
    30   19   21 1
    31   19   41 1
    32   20   42 1
    33   21   22 1
    34   21   43 1
    35   22   23 ar
    36   22   31 ar
    37   23   24 ar
    38   23   44 1
    39   24   25 ar
    40   25   26 ar
    41   25   31 ar
    42   26   27 1
    43   26   28 ar
    44   27   45 1
    45   27   46 1
    46   28   29 ar
    47   29   30 ar
    48   29   47 1
    49   30   31 ar
@<TRIPOS>SUBSTRUCTURE
     1 ACP         1 GROUP 0 A     ****
@<TRIPOS>MOLECULE
[[5-(6-aminopurin-9-yl)-3,4-dihydroxy-tetrahydrofuran-2-yl]methoxy-oxido-phosphoryl]oxy-(phosphonomethyl)phosphinate
   47    49     1     0     0
SMALL
USER_CHARGES

@<TRIPOS>ATOM
      1 PG         -3.3154    7.7311   -0.6719 P.3       1 ACP         1.6478
      2 O1G        -4.5605    8.2913   -0.0529 O.2       1 ACP        -0.9103
      3 O2G        -2.5826    8.6899   -1.7461 O.3       1 ACP        -0.7989
      4 O3G        -3.5044    6.3403   -1.4716 O.3       1 ACP        -0.7989
      5 PB         -2.2075    6.1413    1.8923 P.3       1 ACP         1.4947
      6 O1B        -3.3391    6.6413    2.7601 O.co2     1 ACP        -0.8554
      7 O2B        -0.8319    5.8525    2.4470 O.co2     1 ACP        -0.8554
      8 C3B        -2.0013    7.3516    0.5090 C.3       1 ACP        -0.6550
      9 PA         -3.3163    3.4232    1.4578 P.3       1 ACP         1.5921
     10 O1A        -3.5051    2.5730    0.2200 O.co2     1 ACP        -0.8561
     11 O2A        -4.4645    3.6557    2.4157 O.co2     1 ACP        -0.8561
     12 O3A        -2.7215    4.8747    1.0030 O.3       1 ACP        -0.8166
     13 O5'        -2.0402    2.8619    2.3132 O.3       1 ACP        -0.5737
     14 C5'        -0.8811    2.4285    1.6206 C.3       1 ACP         0.2197
     15 C4'        -0.1994    1.3333    2.4288 C.3       1 ACP         0.0944
     16 O4'        -1.1285    0.2356    2.5840 O.3       1 ACP        -0.4017
     17 C3'         1.0324    0.7610    1.7344 C.3       1 ACP         0.0859
     18 O3'         1.9175    0.2377    2.7247 O.3       1 ACP        -0.5941
     19 C2'         0.4468   -0.3802    0.9263 C.3       1 ACP         0.0924
     20 O2'         1.3993   -1.3703    0.5961 O.3       1 ACP        -0.5928
     21 C1'        -0.6159   -0.9100    1.8769 C.3       1 ACP         0.3967
     22 N9         -1.7127   -1.6108    1.2130 N.pl3     1 ACP        -0.6763
     23 C8         -2.8641   -1.0399    0.7392 C.ar      1 ACP         0.5586
     24 N7         -3.6659   -1.9257    0.1858 N.2       1 ACP        -0.5795
     25 C5         -3.0053   -3.1223    0.3069 C.ar      1 ACP        -0.2116
     26 C6         -3.3321   -4.4178   -0.0813 C.ar      1 ACP         0.7185
     27 N6         -4.5476   -4.6866   -0.7335 N.pl3     1 ACP        -0.9442
     28 N1         -2.4608   -5.4225    0.1773 N.ar      1 ACP        -0.8040
     29 C2         -1.3053   -5.1020    0.8081 C.ar      1 ACP         0.6560
     30 N3         -0.8788   -3.8921    1.2315 N.ar      1 ACP        -0.7058
     31 C4         -1.7870   -2.9477    0.9438 C.ar      1 ACP         0.5729
     32 HOG2       -3.0753    8.9702   -2.5466 H         1 ACP         0.4440
     33 HOG3       -4.1186    6.3113   -2.2358 H         1 ACP         0.4440
     34 H3B1       -1.1342    7.0008   -0.0620 H         1 ACP         0.1084
     35 H3B2       -1.7118    8.2979    0.9802 H         1 ACP         0.1084
     36 H5'1       -1.1771    2.0504    0.6370 H         1 ACP         0.0281
     37 H5'2       -0.2083    3.2816    1.4878 H         1 ACP         0.0281
     38 H4'         0.0403    1.7078    3.4343 H         1 ACP         0.1082
     39 H3'         1.5906    1.4859    1.1353 H         1 ACP         0.0650
     40 HO3'        2.6839   -0.1150    2.2479 H         1 ACP         0.4300
     41 H2'        -0.0017    0.0018    0.0005 H         1 ACP         0.0785
     42 HO2'        2.0953   -0.9375    0.0709 H         1 ACP         0.4275
     43 H1'        -0.1998   -1.6319    2.6178 H         1 ACP         0.1009
     44 H8         -3.0609    0.0200    0.8250 H         1 ACP         0.1067
     45 HN61       -5.2046   -3.9433   -0.8775 H         1 ACP         0.4213
     46 HN62       -4.7849   -5.6332   -0.9625 H         1 ACP         0.4213
     47 H2         -0.6318   -5.9307    0.9993 H         1 ACP         0.0365
@<TRIPOS>BOND
     1    1    2 2
     2    1    3 1
     3    1    4 1
     4    1    8 1
     5    3   32 1
     6    4   33 1
     7    5    6 2
     8    5    7 1
     9    5    8 1
    10    5   12 1
    11    8   34 1
    12    8   35 1
    13    9   10 2
    14    9   11 1
    15    9   12 1
    16    9   13 1
    17   13   14 1
    18   14   15 1
    19   14   36 1
    20   14   37 1
    21   15   16 1
    22   15   17 1
    23   15   38 1
    24   16   21 1
    25   17   18 1
    26   17   19 1
    27   17   39 1
    28   18   40 1
    29   19   20 1
    30   19   21 1
    31   19   41 1
    32   20   42 1
    33   21   22 1
    34   21   43 1
    35   22   23 ar
    36   22   31 ar
    37   23   24 ar
    38   23   44 1
    39   24   25 ar
    40   25   26 ar
    41   25   31 ar
    42   26   27 1
    43   26   28 ar
    44   27   45 1
    45   27   46 1
    46   28   29 ar
    47   29   30 ar
    48   29   47 1
    49   30   31 ar
@<TRIPOS>SUBSTRUCTURE
     1 ACP         1 GROUP 0 A     ****
@<TRIPOS>MOLECULE
[[5-(6-aminopurin-9-yl)-3,4-dihydroxy-tetrahydrofuran-2-yl]methoxy-oxido-phosphoryl]oxy-(phosphonomethyl)phosphinate
   47    49     1     0     0
SMALL
USER_CHARGES

@<TRIPOS>ATOM
      1 PG         -3.7109    8.1019    2.3856 P.3       1 ACP         1.6478
      2 O1G        -3.6159    7.9656    0.8958 O.2       1 ACP        -0.9103
      3 O2G        -5.1845    8.4321    2.9597 O.3       1 ACP        -0.7989
      4 O3G        -2.7833    9.2532    3.0366 O.3       1 ACP        -0.7989
      5 PB         -1.5478    5.8637    3.1865 P.3       1 ACP         1.4947
      6 O1B        -1.5377    4.6525    4.0901 O.co2     1 ACP        -0.8554
      7 O2B        -0.5412    6.9823    3.3248 O.co2     1 ACP        -0.8554
      8 C3B        -3.2317    6.6200    3.3020 C.3       1 ACP        -0.6550
      9 PA         -0.4662    4.8323    0.6228 P.3       1 ACP         1.5921
     10 O1A         0.6572    5.8459    0.5874 O.co2     1 ACP        -0.8561
     11 O2A        -1.1249    4.3667   -0.6576 O.co2     1 ACP        -0.8561
     12 O3A        -1.6280    5.3822    1.6306 O.3       1 ACP        -0.8166
     13 O5'         0.0182    3.5132    1.4596 O.3       1 ACP        -0.5737
     14 C5'        -0.8811    2.4285    1.6206 C.3       1 ACP         0.2197
     15 C4'        -0.1994    1.3333    2.4288 C.3       1 ACP         0.0944
     16 O4'        -1.1285    0.2356    2.5840 O.3       1 ACP        -0.4017
     17 C3'         1.0324    0.7610    1.7344 C.3       1 ACP         0.0859
     18 O3'         1.9175    0.2377    2.7247 O.3       1 ACP        -0.5941
     19 C2'         0.4468   -0.3802    0.9263 C.3       1 ACP         0.0924
     20 O2'         1.3993   -1.3703    0.5961 O.3       1 ACP        -0.5928
     21 C1'        -0.6159   -0.9100    1.8769 C.3       1 ACP         0.3967
     22 N9         -1.7127   -1.6108    1.2130 N.pl3     1 ACP        -0.6763
     23 C8         -1.7712   -2.9546    0.9544 C.ar      1 ACP         0.5586
     24 N7         -2.8883   -3.2948    0.3462 N.2       1 ACP        -0.5795
     25 C5         -3.5834   -2.1202    0.2043 C.ar      1 ACP        -0.2116
     26 C6         -4.8225   -1.8251   -0.3554 C.ar      1 ACP         0.7185
     27 N6         -5.6154   -2.8394   -0.9189 N.pl3     1 ACP        -0.9442
     28 N1         -5.2589   -0.5425   -0.3507 N.ar      1 ACP        -0.8040
     29 C2         -4.4510    0.3913    0.2069 C.ar      1 ACP         0.6560
     30 N3         -3.2368    0.2296    0.7767 N.ar      1 ACP        -0.7058
     31 C4         -2.8684   -1.0596    0.7376 C.ar      1 ACP         0.5729
     32 HOG2       -5.6333    9.2552    2.6713 H         1 ACP         0.4440
     33 HOG3       -2.9158   10.1842    2.7581 H         1 ACP         0.4440
     34 H3B1       -3.3903    6.8236    4.3670 H         1 ACP         0.1084
     35 H3B2       -3.9351    5.8282    3.0200 H         1 ACP         0.1084
     36 H5'1       -1.7769    2.7852    2.1386 H         1 ACP         0.0281
     37 H5'2       -1.1652    2.0544    0.6320 H         1 ACP         0.0281
     38 H4'         0.0403    1.7078    3.4343 H         1 ACP         0.1082
     39 H3'         1.5906    1.4859    1.1353 H         1 ACP         0.0650
     40 HO3'        2.6839   -0.1150    2.2479 H         1 ACP         0.4300
     41 H2'        -0.0017    0.0018    0.0005 H         1 ACP         0.0785
     42 HO2'        0.9369   -2.0558    0.0825 H         1 ACP         0.4275
     43 H1'        -0.1998   -1.6319    2.6178 H         1 ACP         0.1009
     44 H8         -0.9745   -3.6312    1.2318 H         1 ACP         0.1067
     45 HN61       -6.5251   -2.6138   -1.2745 H         1 ACP         0.4213
     46 HN62       -5.3033   -3.7910   -0.8740 H         1 ACP         0.4213
     47 H2         -4.8317    1.4071    0.1930 H         1 ACP         0.0365
@<TRIPOS>BOND
     1    1    2 2
     2    1    3 1
     3    1    4 1
     4    1    8 1
     5    3   32 1
     6    4   33 1
     7    5    6 2
     8    5    7 1
     9    5    8 1
    10    5   12 1
    11    8   34 1
    12    8   35 1
    13    9   10 2
    14    9   11 1
    15    9   12 1
    16    9   13 1
    17   13   14 1
    18   14   15 1
    19   14   36 1
    20   14   37 1
    21   15   16 1
    22   15   17 1
    23   15   38 1
    24   16   21 1
    25   17   18 1
    26   17   19 1
    27   17   39 1
    28   18   40 1
    29   19   20 1
    30   19   21 1
    31   19   41 1
    32   20   42 1
    33   21   22 1
    34   21   43 1
    35   22   23 ar
    36   22   31 ar
    37   23   24 ar
    38   23   44 1
    39   24   25 ar
    40   25   26 ar
    41   25   31 ar
    42   26   27 1
    43   26   28 ar
    44   27   45 1
    45   27   46 1
    46   28   29 ar
    47   29   30 ar
    48   29   47 1
    49   30   31 ar
@<TRIPOS>SUBSTRUCTURE
     1 ACP         1 GROUP 0 A     ****
@<TRIPOS>MOLECULE
[[5-(6-aminopurin-9-yl)-3,4-dihydroxy-tetrahydrofuran-2-yl]methoxy-oxido-phosphoryl]oxy-(phosphonomethyl)phosphinate
   47    49     1     0     0
SMALL
USER_CHARGES

@<TRIPOS>ATOM
      1 PG         -3.3965    7.0623    2.4211 P.3       1 ACP         1.6478
      2 O1G        -2.6294    8.3448    2.5400 O.2       1 ACP        -0.9103
      3 O2G        -4.8611    7.0639    3.1031 O.3       1 ACP        -0.7989
      4 O3G        -2.6803    5.7644    3.0632 O.3       1 ACP        -0.7989
      5 PB         -2.3949    6.2027   -0.5094 P.3       1 ACP         1.4947
      6 O1B        -1.5919    7.4731   -0.6679 O.co2     1 ACP        -0.8554
      7 O2B        -3.0352    5.5007   -1.6845 O.co2     1 ACP        -0.8554
      8 C3B        -3.7315    6.5488    0.7212 C.3       1 ACP        -0.6550
      9 PA         -0.0885    4.4445    0.1193 P.3       1 ACP         1.5921
     10 O1A         0.9671    5.5276    0.1742 O.co2     1 ACP        -0.8561
     11 O2A        -0.1962    3.5335   -1.0842 O.co2     1 ACP        -0.8561
     12 O3A        -1.5478    5.1301    0.3800 O.3       1 ACP        -0.8166
     13 O5'         0.0182    3.5132    1.4596 O.3       1 ACP        -0.5737
     14 C5'        -0.8811    2.4285    1.6206 C.3       1 ACP         0.2197
     15 C4'        -0.1994    1.3333    2.4288 C.3       1 ACP         0.0944
     16 O4'        -1.1285    0.2356    2.5840 O.3       1 ACP        -0.4017
     17 C3'         1.0324    0.7610    1.7344 C.3       1 ACP         0.0859
     18 O3'         1.9175    0.2377    2.7247 O.3       1 ACP        -0.5941
     19 C2'         0.4468   -0.3802    0.9263 C.3       1 ACP         0.0924
     20 O2'         1.3993   -1.3703    0.5961 O.3       1 ACP        -0.5928
     21 C1'        -0.6159   -0.9100    1.8769 C.3       1 ACP         0.3967
     22 N9         -1.7127   -1.6108    1.2130 N.pl3     1 ACP        -0.6763
     23 C8         -1.7712   -2.9546    0.9544 C.ar      1 ACP         0.5586
     24 N7         -2.8883   -3.2948    0.3462 N.2       1 ACP        -0.5795
     25 C5         -3.5834   -2.1202    0.2043 C.ar      1 ACP        -0.2116
     26 C6         -4.8225   -1.8251   -0.3554 C.ar      1 ACP         0.7185
     27 N6         -5.6154   -2.8394   -0.9189 N.pl3     1 ACP        -0.9442
     28 N1         -5.2589   -0.5425   -0.3507 N.ar      1 ACP        -0.8040
     29 C2         -4.4510    0.3913    0.2069 C.ar      1 ACP         0.6560
     30 N3         -3.2368    0.2296    0.7767 N.ar      1 ACP        -0.7058
     31 C4         -2.8684   -1.0596    0.7376 C.ar      1 ACP         0.5729
     32 HOG2       -4.9365    7.2340    4.0661 H         1 ACP         0.4440
     33 HOG3       -2.4685    5.7637    4.0209 H         1 ACP         0.4440
     34 H3B1       -4.3354    5.6354    0.7643 H         1 ACP         0.1084
     35 H3B2       -4.3594    7.3258    0.2703 H         1 ACP         0.1084
     36 H5'1       -1.7769    2.7852    2.1386 H         1 ACP         0.0281
     37 H5'2       -1.1652    2.0544    0.6320 H         1 ACP         0.0281
     38 H4'         0.0403    1.7078    3.4343 H         1 ACP         0.1082
     39 H3'         1.5906    1.4859    1.1353 H         1 ACP         0.0650
     40 HO3'        2.6839   -0.1150    2.2479 H         1 ACP         0.4300
     41 H2'        -0.0017    0.0018    0.0005 H         1 ACP         0.0785
     42 HO2'        2.0953   -0.9375    0.0709 H         1 ACP         0.4275
     43 H1'        -0.1998   -1.6319    2.6178 H         1 ACP         0.1009
     44 H8         -0.9745   -3.6312    1.2318 H         1 ACP         0.1067
     45 HN61       -5.2619   -3.7766   -0.9586 H         1 ACP         0.4213
     46 HN62       -6.4834   -2.5990   -1.3590 H         1 ACP         0.4213
     47 H2         -4.8317    1.4071    0.1930 H         1 ACP         0.0365
@<TRIPOS>BOND
     1    1    2 2
     2    1    3 1
     3    1    4 1
     4    1    8 1
     5    3   32 1
     6    4   33 1
     7    5    6 2
     8    5    7 1
     9    5    8 1
    10    5   12 1
    11    8   34 1
    12    8   35 1
    13    9   10 2
    14    9   11 1
    15    9   12 1
    16    9   13 1
    17   13   14 1
    18   14   15 1
    19   14   36 1
    20   14   37 1
    21   15   16 1
    22   15   17 1
    23   15   38 1
    24   16   21 1
    25   17   18 1
    26   17   19 1
    27   17   39 1
    28   18   40 1
    29   19   20 1
    30   19   21 1
    31   19   41 1
    32   20   42 1
    33   21   22 1
    34   21   43 1
    35   22   23 ar
    36   22   31 ar
    37   23   24 ar
    38   23   44 1
    39   24   25 ar
    40   25   26 ar
    41   25   31 ar
    42   26   27 1
    43   26   28 ar
    44   27   45 1
    45   27   46 1
    46   28   29 ar
    47   29   30 ar
    48   29   47 1
    49   30   31 ar
@<TRIPOS>SUBSTRUCTURE
     1 ACP         1 GROUP 0 A     ****
@<TRIPOS>MOLECULE
[[5-(6-aminopurin-9-yl)-3,4-dihydroxy-tetrahydrofuran-2-yl]methoxy-oxido-phosphoryl]oxy-(phosphonomethyl)phosphinate
   47    49     1     0     0
SMALL
USER_CHARGES

@<TRIPOS>ATOM
      1 PG         -0.3009    6.4926   -0.6824 P.3       1 ACP         1.6478
      2 O1G         0.2836    5.3788    0.1331 O.2       1 ACP        -0.9103
      3 O2G        -0.6263    6.1284   -2.2224 O.3       1 ACP        -0.7989
      4 O3G         0.6089    7.8231   -0.7911 O.3       1 ACP        -0.7989
      5 PB         -3.3865    6.0658    0.1095 P.3       1 ACP         1.4947
      6 O1B        -3.7236    5.5375   -1.2656 O.co2     1 ACP        -0.8554
      7 O2B        -4.3825    6.8367    0.9445 O.co2     1 ACP        -0.8554
      8 C3B        -1.8779    7.1217   -0.0634 C.3       1 ACP        -0.6550
      9 PA         -3.3163    3.4232    1.4578 P.3       1 ACP         1.5921
     10 O1A        -3.5051    2.5730    0.2200 O.co2     1 ACP        -0.8561
     11 O2A        -4.4645    3.6557    2.4157 O.co2     1 ACP        -0.8561
     12 O3A        -2.7215    4.8747    1.0030 O.3       1 ACP        -0.8166
     13 O5'        -2.0402    2.8619    2.3132 O.3       1 ACP        -0.5737
     14 C5'        -0.8811    2.4285    1.6206 C.3       1 ACP         0.2197
     15 C4'        -0.1994    1.3333    2.4288 C.3       1 ACP         0.0944
     16 O4'        -1.1285    0.2356    2.5840 O.3       1 ACP        -0.4017
     17 C3'         1.0324    0.7610    1.7344 C.3       1 ACP         0.0859
     18 O3'         1.9175    0.2377    2.7247 O.3       1 ACP        -0.5941
     19 C2'         0.4468   -0.3802    0.9263 C.3       1 ACP         0.0924
     20 O2'         1.3993   -1.3703    0.5961 O.3       1 ACP        -0.5928
     21 C1'        -0.6159   -0.9100    1.8769 C.3       1 ACP         0.3967
     22 N9         -1.7127   -1.6108    1.2130 N.pl3     1 ACP        -0.6763
     23 C8         -2.8641   -1.0399    0.7392 C.ar      1 ACP         0.5586
     24 N7         -3.6659   -1.9257    0.1858 N.2       1 ACP        -0.5795
     25 C5         -3.0053   -3.1223    0.3069 C.ar      1 ACP        -0.2116
     26 C6         -3.3321   -4.4178   -0.0813 C.ar      1 ACP         0.7185
     27 N6         -4.5476   -4.6866   -0.7335 N.pl3     1 ACP        -0.9442
     28 N1         -2.4608   -5.4225    0.1773 N.ar      1 ACP        -0.8040
     29 C2         -1.3053   -5.1020    0.8081 C.ar      1 ACP         0.6560
     30 N3         -0.8788   -3.8921    1.2315 N.ar      1 ACP        -0.7058
     31 C4         -1.7870   -2.9477    0.9438 C.ar      1 ACP         0.5729
     32 HOG2        0.1060    5.8381   -2.8068 H         1 ACP         0.4440
     33 HOG3        1.5038    7.7557   -1.1869 H         1 ACP         0.4440
     34 H3B1       -1.6982    7.5434    0.9320 H         1 ACP         0.1084
     35 H3B2       -2.1682    7.9537   -0.7151 H         1 ACP         0.1084
     36 H5'1       -1.1771    2.0504    0.6370 H         1 ACP         0.0281
     37 H5'2       -0.2083    3.2816    1.4878 H         1 ACP         0.0281
     38 H4'         0.0403    1.7078    3.4343 H         1 ACP         0.1082
     39 H3'         1.5906    1.4859    1.1353 H         1 ACP         0.0650
     40 HO3'        2.6839   -0.1150    2.2479 H         1 ACP         0.4300
     41 H2'        -0.0017    0.0018    0.0005 H         1 ACP         0.0785
     42 HO2'        2.0953   -0.9375    0.0709 H         1 ACP         0.4275
     43 H1'        -0.1998   -1.6319    2.6178 H         1 ACP         0.1009
     44 H8         -3.0609    0.0200    0.8250 H         1 ACP         0.1067
     45 HN61       -5.2046   -3.9433   -0.8775 H         1 ACP         0.4213
     46 HN62       -4.7849   -5.6332   -0.9625 H         1 ACP         0.4213
     47 H2         -0.6318   -5.9307    0.9993 H         1 ACP         0.0365
@<TRIPOS>BOND
     1    1    2 2
     2    1    3 1
     3    1    4 1
     4    1    8 1
     5    3   32 1
     6    4   33 1
     7    5    6 2
     8    5    7 1
     9    5    8 1
    10    5   12 1
    11    8   34 1
    12    8   35 1
    13    9   10 2
    14    9   11 1
    15    9   12 1
    16    9   13 1
    17   13   14 1
    18   14   15 1
    19   14   36 1
    20   14   37 1
    21   15   16 1
    22   15   17 1
    23   15   38 1
    24   16   21 1
    25   17   18 1
    26   17   19 1
    27   17   39 1
    28   18   40 1
    29   19   20 1
    30   19   21 1
    31   19   41 1
    32   20   42 1
    33   21   22 1
    34   21   43 1
    35   22   23 ar
    36   22   31 ar
    37   23   24 ar
    38   23   44 1
    39   24   25 ar
    40   25   26 ar
    41   25   31 ar
    42   26   27 1
    43   26   28 ar
    44   27   45 1
    45   27   46 1
    46   28   29 ar
    47   29   30 ar
    48   29   47 1
    49   30   31 ar
@<TRIPOS>SUBSTRUCTURE
     1 ACP         1 GROUP 0 A     ****
@<TRIPOS>MOLECULE
[[5-(6-aminopurin-9-yl)-3,4-dihydroxy-tetrahydrofuran-2-yl]methoxy-oxido-phosphoryl]oxy-(phosphonomethyl)phosphinate
   47    49     1     0     0
SMALL
USER_CHARGES

@<TRIPOS>ATOM
      1 PG         -4.2292    3.2378    5.2436 P.3       1 ACP         1.6478
      2 O1G        -4.4000    2.6549    6.6142 O.2       1 ACP        -0.9103
      3 O2G        -5.5902    3.4203    4.3925 O.3       1 ACP        -0.7989
      4 O3G        -3.2693    2.4011    4.2496 O.3       1 ACP        -0.7989
      5 PB         -3.1851    5.8338    3.6623 P.3       1 ACP         1.4947
      6 O1B        -2.5766    7.1600    4.0554 O.co2     1 ACP        -0.8554
      7 O2B        -4.4337    5.7377    2.8165 O.co2     1 ACP        -0.8554
      8 C3B        -3.5021    4.8921    5.2222 C.3       1 ACP        -0.6550
      9 PA         -1.0481    5.0552    1.7563 P.3       1 ACP         1.5921
     10 O1A        -0.1188    6.2188    2.0266 O.co2     1 ACP        -0.8561
     11 O2A        -1.8976    5.0221    0.5044 O.co2     1 ACP        -0.8561
     12 O3A        -2.0269    4.8631    3.0495 O.3       1 ACP        -0.8166
     13 O5'        -0.2059    3.6558    1.8419 O.3       1 ACP        -0.5737
     14 C5'        -0.8811    2.4285    1.6206 C.3       1 ACP         0.2197
     15 C4'        -0.1994    1.3333    2.4288 C.3       1 ACP         0.0944
     16 O4'        -1.1285    0.2356    2.5840 O.3       1 ACP        -0.4017
     17 C3'         1.0324    0.7610    1.7344 C.3       1 ACP         0.0859
     18 O3'         1.9175    0.2377    2.7247 O.3       1 ACP        -0.5941
     19 C2'         0.4468   -0.3802    0.9263 C.3       1 ACP         0.0924
     20 O2'         1.3993   -1.3703    0.5961 O.3       1 ACP        -0.5928
     21 C1'        -0.6159   -0.9100    1.8769 C.3       1 ACP         0.3967
     22 N9         -1.7127   -1.6108    1.2130 N.pl3     1 ACP        -0.6763
     23 C8         -2.8641   -1.0399    0.7392 C.ar      1 ACP         0.5586
     24 N7         -3.6659   -1.9257    0.1858 N.2       1 ACP        -0.5795
     25 C5         -3.0053   -3.1223    0.3069 C.ar      1 ACP        -0.2116
     26 C6         -3.3321   -4.4178   -0.0813 C.ar      1 ACP         0.7185
     27 N6         -4.5476   -4.6866   -0.7335 N.pl3     1 ACP        -0.9442
     28 N1         -2.4608   -5.4225    0.1773 N.ar      1 ACP        -0.8040
     29 C2         -1.3053   -5.1020    0.8081 C.ar      1 ACP         0.6560
     30 N3         -0.8788   -3.8921    1.2315 N.ar      1 ACP        -0.7058
     31 C4         -1.7870   -2.9477    0.9438 C.ar      1 ACP         0.5729
     32 HOG2       -6.1329    2.6291    4.1889 H         1 ACP         0.4440
     33 HOG3       -3.5064    1.4756    4.0274 H         1 ACP         0.4440
     34 H3B1       -4.1389    5.5414    5.8337 H         1 ACP         0.1084
     35 H3B2       -2.5342    4.8226    5.7316 H         1 ACP         0.1084
     36 H5'1       -1.9255    2.5383    1.9294 H         1 ACP         0.0281
     37 H5'2       -0.8472    2.1934    0.5521 H         1 ACP         0.0281
     38 H4'         0.0403    1.7078    3.4343 H         1 ACP         0.1082
     39 H3'         1.5906    1.4859    1.1353 H         1 ACP         0.0650
     40 HO3'        2.6839   -0.1150    2.2479 H         1 ACP         0.4300
     41 H2'        -0.0017    0.0018    0.0005 H         1 ACP         0.0785
     42 HO2'        2.0953   -0.9375    0.0709 H         1 ACP         0.4275
     43 H1'        -0.1998   -1.6319    2.6178 H         1 ACP         0.1009
     44 H8         -3.0609    0.0200    0.8250 H         1 ACP         0.1067
     45 HN61       -5.2046   -3.9433   -0.8775 H         1 ACP         0.4213
     46 HN62       -4.7849   -5.6332   -0.9625 H         1 ACP         0.4213
     47 H2         -0.6318   -5.9307    0.9993 H         1 ACP         0.0365
@<TRIPOS>BOND
     1    1    2 2
     2    1    3 1
     3    1    4 1
     4    1    8 1
     5    3   32 1
     6    4   33 1
     7    5    6 2
     8    5    7 1
     9    5    8 1
    10    5   12 1
    11    8   34 1
    12    8   35 1
    13    9   10 2
    14    9   11 1
    15    9   12 1
    16    9   13 1
    17   13   14 1
    18   14   15 1
    19   14   36 1
    20   14   37 1
    21   15   16 1
    22   15   17 1
    23   15   38 1
    24   16   21 1
    25   17   18 1
    26   17   19 1
    27   17   39 1
    28   18   40 1
    29   19   20 1
    30   19   21 1
    31   19   41 1
    32   20   42 1
    33   21   22 1
    34   21   43 1
    35   22   23 ar
    36   22   31 ar
    37   23   24 ar
    38   23   44 1
    39   24   25 ar
    40   25   26 ar
    41   25   31 ar
    42   26   27 1
    43   26   28 ar
    44   27   45 1
    45   27   46 1
    46   28   29 ar
    47   29   30 ar
    48   29   47 1
    49   30   31 ar
@<TRIPOS>SUBSTRUCTURE
     1 ACP         1 GROUP 0 A     ****
@<TRIPOS>MOLECULE
[[5-(6-aminopurin-9-yl)-3,4-dihydroxy-tetrahydrofuran-2-yl]methoxy-oxido-phosphoryl]oxy-(phosphonomethyl)phosphinate
   47    49     1     0     0
SMALL
USER_CHARGES

@<TRIPOS>ATOM
      1 PG          1.4471    7.3932    2.5008 P.3       1 ACP         1.6478
      2 O1G         1.4273    6.1519    3.3410 O.2       1 ACP        -0.9103
      3 O2G         2.8931    7.8107    1.9134 O.3       1 ACP        -0.7989
      4 O3G         0.9344    8.7365    3.2372 O.3       1 ACP        -0.7989
      5 PB         -1.4194    7.0352    1.0919 P.3       1 ACP         1.4947
      6 O1B        -1.9246    7.0299   -0.3323 O.co2     1 ACP        -0.8554
      7 O2B        -1.9771    7.9670    2.1427 O.co2     1 ACP        -0.8554
      8 C3B         0.4082    7.3109    1.0245 C.3       1 ACP        -0.6550
      9 PA         -2.5927    4.4187    1.8559 P.3       1 ACP         1.5921
     10 O1A        -3.1158    4.0380    0.4876 O.co2     1 ACP        -0.8561
     11 O2A        -3.5338    4.9255    2.9271 O.co2     1 ACP        -0.8561
     12 O3A        -1.3917    5.5091    1.6659 O.3       1 ACP        -0.8166
     13 O5'        -1.7337    3.1724    2.4754 O.3       1 ACP        -0.5737
     14 C5'        -0.8811    2.4285    1.6206 C.3       1 ACP         0.2197
     15 C4'        -0.1994    1.3333    2.4288 C.3       1 ACP         0.0944
     16 O4'        -1.1285    0.2356    2.5840 O.3       1 ACP        -0.4017
     17 C3'         1.0324    0.7610    1.7344 C.3       1 ACP         0.0859
     18 O3'         1.9175    0.2377    2.7247 O.3       1 ACP        -0.5941
     19 C2'         0.4468   -0.3802    0.9263 C.3       1 ACP         0.0924
     20 O2'         1.3993   -1.3703    0.5961 O.3       1 ACP        -0.5928
     21 C1'        -0.6159   -0.9100    1.8769 C.3       1 ACP         0.3967
     22 N9         -1.7127   -1.6108    1.2130 N.pl3     1 ACP        -0.6763
     23 C8         -1.7712   -2.9546    0.9544 C.ar      1 ACP         0.5586
     24 N7         -2.8883   -3.2948    0.3462 N.2       1 ACP        -0.5795
     25 C5         -3.5834   -2.1202    0.2043 C.ar      1 ACP        -0.2116
     26 C6         -4.8225   -1.8251   -0.3554 C.ar      1 ACP         0.7185
     27 N6         -5.6154   -2.8394   -0.9189 N.pl3     1 ACP        -0.9442
     28 N1         -5.2589   -0.5425   -0.3507 N.ar      1 ACP        -0.8040
     29 C2         -4.4510    0.3913    0.2069 C.ar      1 ACP         0.6560
     30 N3         -3.2368    0.2296    0.7767 N.ar      1 ACP        -0.7058
     31 C4         -2.8684   -1.0596    0.7376 C.ar      1 ACP         0.5729
     32 HOG2        3.6232    8.0016    2.5399 H         1 ACP         0.4440
     33 HOG3        1.4066    9.0492    4.0380 H         1 ACP         0.4440
     34 H3B1        0.5443    8.2471    0.4714 H         1 ACP         0.1084
     35 H3B2        0.8089    6.5075    0.3959 H         1 ACP         0.1084
     36 H5'1       -1.4802    1.9929    0.8148 H         1 ACP         0.0281
     37 H5'2       -0.1370    3.1043    1.1873 H         1 ACP         0.0281
     38 H4'         0.0403    1.7078    3.4343 H         1 ACP         0.1082
     39 H3'         1.5906    1.4859    1.1353 H         1 ACP         0.0650
     40 HO3'        2.1521    0.9800    3.3017 H         1 ACP         0.4300
     41 H2'        -0.0017    0.0018    0.0005 H         1 ACP         0.0785
     42 HO2'        0.9369   -2.0558    0.0825 H         1 ACP         0.4275
     43 H1'        -0.1998   -1.6319    2.6178 H         1 ACP         0.1009
     44 H8         -0.9745   -3.6312    1.2318 H         1 ACP         0.1067
     45 HN61       -5.2619   -3.7766   -0.9586 H         1 ACP         0.4213
     46 HN62       -6.4834   -2.5990   -1.3590 H         1 ACP         0.4213
     47 H2         -4.8317    1.4071    0.1930 H         1 ACP         0.0365
@<TRIPOS>BOND
     1    1    2 2
     2    1    3 1
     3    1    4 1
     4    1    8 1
     5    3   32 1
     6    4   33 1
     7    5    6 2
     8    5    7 1
     9    5    8 1
    10    5   12 1
    11    8   34 1
    12    8   35 1
    13    9   10 2
    14    9   11 1
    15    9   12 1
    16    9   13 1
    17   13   14 1
    18   14   15 1
    19   14   36 1
    20   14   37 1
    21   15   16 1
    22   15   17 1
    23   15   38 1
    24   16   21 1
    25   17   18 1
    26   17   19 1
    27   17   39 1
    28   18   40 1
    29   19   20 1
    30   19   21 1
    31   19   41 1
    32   20   42 1
    33   21   22 1
    34   21   43 1
    35   22   23 ar
    36   22   31 ar
    37   23   24 ar
    38   23   44 1
    39   24   25 ar
    40   25   26 ar
    41   25   31 ar
    42   26   27 1
    43   26   28 ar
    44   27   45 1
    45   27   46 1
    46   28   29 ar
    47   29   30 ar
    48   29   47 1
    49   30   31 ar
@<TRIPOS>SUBSTRUCTURE
     1 ACP         1 GROUP 0 A     ****
@<TRIPOS>MOLECULE
[[5-(6-aminopurin-9-yl)-3,4-dihydroxy-tetrahydrofuran-2-yl]methoxy-oxido-phosphoryl]oxy-(phosphonomethyl)phosphinate
   47    49     1     0     0
SMALL
USER_CHARGES

@<TRIPOS>ATOM
      1 PG          1.8686    5.9975    0.4669 P.3       1 ACP         1.6478
      2 O1G         2.7453    6.8251   -0.4239 O.2       1 ACP        -0.9103
      3 O2G         2.6460    5.0123    1.4845 O.3       1 ACP        -0.7989
      4 O3G         0.8350    5.0172   -0.2950 O.3       1 ACP        -0.7989
      5 PB         -0.3810    6.1810    2.7551 P.3       1 ACP         1.4947
      6 O1B        -1.0907    7.3023    3.4780 O.co2     1 ACP        -0.8554
      7 O2B         0.3736    5.0972    3.4896 O.co2     1 ACP        -0.8554
      8 C3B         0.7960    6.9583    1.5587 C.3       1 ACP        -0.6550
      9 PA         -2.5927    4.4187    1.8559 P.3       1 ACP         1.5921
     10 O1A        -3.1158    4.0380    0.4876 O.co2     1 ACP        -0.8561
     11 O2A        -3.5338    4.9255    2.9271 O.co2     1 ACP        -0.8561
     12 O3A        -1.3917    5.5091    1.6659 O.3       1 ACP        -0.8166
     13 O5'        -1.7337    3.1724    2.4754 O.3       1 ACP        -0.5737
     14 C5'        -0.8811    2.4285    1.6206 C.3       1 ACP         0.2197
     15 C4'        -0.1994    1.3333    2.4288 C.3       1 ACP         0.0944
     16 O4'        -1.1285    0.2356    2.5840 O.3       1 ACP        -0.4017
     17 C3'         1.0324    0.7610    1.7344 C.3       1 ACP         0.0859
     18 O3'         1.9175    0.2377    2.7247 O.3       1 ACP        -0.5941
     19 C2'         0.4468   -0.3802    0.9263 C.3       1 ACP         0.0924
     20 O2'         1.3993   -1.3703    0.5961 O.3       1 ACP        -0.5928
     21 C1'        -0.6159   -0.9100    1.8769 C.3       1 ACP         0.3967
     22 N9         -1.7127   -1.6108    1.2130 N.pl3     1 ACP        -0.6763
     23 C8         -2.0877   -2.9101    1.4304 C.ar      1 ACP         0.5586
     24 N7         -3.1152   -3.2613    0.6857 N.2       1 ACP        -0.5795
     25 C5         -3.4186   -2.1409   -0.0462 C.ar      1 ACP        -0.2116
     26 C6         -4.3953   -1.8809   -1.0023 C.ar      1 ACP         0.7185
     27 N6         -5.3118   -2.8767   -1.3812 N.pl3     1 ACP        -0.9442
     28 N1         -4.4538   -0.6507   -1.5667 N.ar      1 ACP        -0.8040
     29 C2         -3.5442    0.2679   -1.1609 C.ar      1 ACP         0.6560
     30 N3         -2.5561    0.1361   -0.2491 N.ar      1 ACP        -0.7058
     31 C4         -2.5568   -1.1019    0.2674 C.ar      1 ACP         0.5729
     32 HOG2        3.2385    4.3221    1.1178 H         1 ACP         0.4440
     33 HOG3        1.1892    4.3278   -0.8960 H         1 ACP         0.4440
     34 H3B1        1.4369    7.6131    2.1598 H         1 ACP         0.1084
     35 H3B2        0.1871    7.6071    0.9188 H         1 ACP         0.1084
     36 H5'1       -1.4802    1.9929    0.8148 H         1 ACP         0.0281
     37 H5'2       -0.1370    3.1043    1.1873 H         1 ACP         0.0281
     38 H4'         0.0403    1.7078    3.4343 H         1 ACP         0.1082
     39 H3'         1.5906    1.4859    1.1353 H         1 ACP         0.0650
     40 HO3'        2.6839   -0.1150    2.2479 H         1 ACP         0.4300
     41 H2'        -0.0017    0.0018    0.0005 H         1 ACP         0.0785
     42 HO2'        2.0953   -0.9375    0.0709 H         1 ACP         0.4275
     43 H1'        -0.1998   -1.6319    2.6178 H         1 ACP         0.1009
     44 H8         -1.5778   -3.5473    2.1399 H         1 ACP         0.1067
     45 HN61       -5.2294   -3.7965   -0.9914 H         1 ACP         0.4213
     46 HN62       -5.9774   -2.6837   -2.1055 H         1 ACP         0.4213
     47 H2         -3.6201    1.2414   -1.6336 H         1 ACP         0.0365
@<TRIPOS>BOND
     1    1    2 2
     2    1    3 1
     3    1    4 1
     4    1    8 1
     5    3   32 1
     6    4   33 1
     7    5    6 2
     8    5    7 1
     9    5    8 1
    10    5   12 1
    11    8   34 1
    12    8   35 1
    13    9   10 2
    14    9   11 1
    15    9   12 1
    16    9   13 1
    17   13   14 1
    18   14   15 1
    19   14   36 1
    20   14   37 1
    21   15   16 1
    22   15   17 1
    23   15   38 1
    24   16   21 1
    25   17   18 1
    26   17   19 1
    27   17   39 1
    28   18   40 1
    29   19   20 1
    30   19   21 1
    31   19   41 1
    32   20   42 1
    33   21   22 1
    34   21   43 1
    35   22   23 ar
    36   22   31 ar
    37   23   24 ar
    38   23   44 1
    39   24   25 ar
    40   25   26 ar
    41   25   31 ar
    42   26   27 1
    43   26   28 ar
    44   27   45 1
    45   27   46 1
    46   28   29 ar
    47   29   30 ar
    48   29   47 1
    49   30   31 ar
@<TRIPOS>SUBSTRUCTURE
     1 ACP         1 GROUP 0 A     ****
@<TRIPOS>MOLECULE
[[5-(6-aminopurin-9-yl)-3,4-dihydroxy-tetrahydrofuran-2-yl]methoxy-oxido-phosphoryl]oxy-(phosphonomethyl)phosphinate
   47    49     1     0     0
SMALL
USER_CHARGES

@<TRIPOS>ATOM
      1 PG         -0.5790    8.6173    0.6682 P.3       1 ACP         1.6478
      2 O1G         0.2425    9.5507   -0.1692 O.2       1 ACP        -0.9103
      3 O2G        -1.6024    7.6708   -0.1486 O.3       1 ACP        -0.7989
      4 O3G        -1.5183    9.3248    1.7758 O.3       1 ACP        -0.7989
      5 PB         -0.3810    6.1810    2.7551 P.3       1 ACP         1.4947
      6 O1B        -1.1833    6.9318    3.7924 O.co2     1 ACP        -0.8554
      7 O2B         0.6983    5.1919    3.1299 O.co2     1 ACP        -0.8554
      8 C3B         0.3883    7.4401    1.6398 C.3       1 ACP        -0.6550
      9 PA         -2.5927    4.4187    1.8559 P.3       1 ACP         1.5921
     10 O1A        -3.1158    4.0380    0.4876 O.co2     1 ACP        -0.8561
     11 O2A        -3.5338    4.9255    2.9271 O.co2     1 ACP        -0.8561
     12 O3A        -1.3917    5.5091    1.6659 O.3       1 ACP        -0.8166
     13 O5'        -1.7337    3.1724    2.4754 O.3       1 ACP        -0.5737
     14 C5'        -0.8811    2.4285    1.6206 C.3       1 ACP         0.2197
     15 C4'        -0.1994    1.3333    2.4288 C.3       1 ACP         0.0944
     16 O4'        -1.1285    0.2356    2.5840 O.3       1 ACP        -0.4017
     17 C3'         1.0324    0.7610    1.7344 C.3       1 ACP         0.0859
     18 O3'         1.9175    0.2377    2.7247 O.3       1 ACP        -0.5941
     19 C2'         0.4468   -0.3802    0.9263 C.3       1 ACP         0.0924
     20 O2'         1.3993   -1.3703    0.5961 O.3       1 ACP        -0.5928
     21 C1'        -0.6159   -0.9100    1.8769 C.3       1 ACP         0.3967
     22 N9         -1.7127   -1.6108    1.2130 N.pl3     1 ACP        -0.6763
     23 C8         -2.5476   -1.0844    0.2632 C.ar      1 ACP         0.5586
     24 N7         -3.4391   -1.9591   -0.1536 N.2       1 ACP        -0.5795
     25 C5         -3.1701   -3.1016    0.5574 C.ar      1 ACP        -0.2116
     26 C6         -3.7593   -4.3620    0.5656 C.ar      1 ACP         0.7185
     27 N6         -4.8512   -4.6493   -0.2712 N.pl3     1 ACP        -0.9442
     28 N1         -3.2659   -5.3144    1.3932 N.ar      1 ACP        -0.8040
     29 C2         -2.2122   -4.9785    2.1759 C.ar      1 ACP         0.6560
     30 N3         -1.5595   -3.7985    2.2572 N.ar      1 ACP        -0.7058
     31 C4         -2.0986   -2.9054    1.4140 C.ar      1 ACP         0.5729
     32 HOG2       -2.3006    8.0879   -0.6969 H         1 ACP         0.4440
     33 HOG3       -2.2051    9.9598    1.4808 H         1 ACP         0.4440
     34 H3B1        1.0153    6.8722    0.9433 H         1 ACP         0.1084
     35 H3B2        1.0642    8.0268    2.2724 H         1 ACP         0.1084
     36 H5'1       -1.4802    1.9929    0.8148 H         1 ACP         0.0281
     37 H5'2       -0.1370    3.1043    1.1873 H         1 ACP         0.0281
     38 H4'         0.0403    1.7078    3.4343 H         1 ACP         0.1082
     39 H3'         1.5906    1.4859    1.1353 H         1 ACP         0.0650
     40 HO3'        2.1521    0.9800    3.3017 H         1 ACP         0.4300
     41 H2'        -0.0017    0.0018    0.0005 H         1 ACP         0.0785
     42 HO2'        0.9369   -2.0558    0.0825 H         1 ACP         0.4275
     43 H1'        -0.1998   -1.6319    2.6178 H         1 ACP         0.1009
     44 H8         -2.4576   -0.0639   -0.0831 H         1 ACP         0.1067
     45 HN61       -5.2371   -3.9234   -0.8448 H         1 ACP         0.4213
     46 HN62       -5.2909   -5.5485   -0.2160 H         1 ACP         0.4213
     47 H2         -1.8433   -5.7650    2.8259 H         1 ACP         0.0365
@<TRIPOS>BOND
     1    1    2 2
     2    1    3 1
     3    1    4 1
     4    1    8 1
     5    3   32 1
     6    4   33 1
     7    5    6 2
     8    5    7 1
     9    5    8 1
    10    5   12 1
    11    8   34 1
    12    8   35 1
    13    9   10 2
    14    9   11 1
    15    9   12 1
    16    9   13 1
    17   13   14 1
    18   14   15 1
    19   14   36 1
    20   14   37 1
    21   15   16 1
    22   15   17 1
    23   15   38 1
    24   16   21 1
    25   17   18 1
    26   17   19 1
    27   17   39 1
    28   18   40 1
    29   19   20 1
    30   19   21 1
    31   19   41 1
    32   20   42 1
    33   21   22 1
    34   21   43 1
    35   22   23 ar
    36   22   31 ar
    37   23   24 ar
    38   23   44 1
    39   24   25 ar
    40   25   26 ar
    41   25   31 ar
    42   26   27 1
    43   26   28 ar
    44   27   45 1
    45   27   46 1
    46   28   29 ar
    47   29   30 ar
    48   29   47 1
    49   30   31 ar
@<TRIPOS>SUBSTRUCTURE
     1 ACP         1 GROUP 0 A     ****
@<TRIPOS>MOLECULE
[[5-(6-aminopurin-9-yl)-3,4-dihydroxy-tetrahydrofuran-2-yl]methoxy-oxido-phosphoryl]oxy-(phosphonomethyl)phosphinate
   47    49     1     0     0
SMALL
USER_CHARGES

@<TRIPOS>ATOM
      1 PG         -0.7559    7.1636   -0.7869 P.3       1 ACP         1.6478
      2 O1G        -0.7598    8.2574   -1.8119 O.2       1 ACP        -0.9103
      3 O2G         0.6199    6.9952    0.0432 O.3       1 ACP        -0.7989
      4 O3G        -1.0393    5.6788   -1.3569 O.3       1 ACP        -0.7989
      5 PB         -2.2075    6.1413    1.8923 P.3       1 ACP         1.4947
      6 O1B        -3.3391    6.6413    2.7601 O.co2     1 ACP        -0.8554
      7 O2B        -0.8319    5.8525    2.4470 O.co2     1 ACP        -0.8554
      8 C3B        -2.0013    7.3516    0.5090 C.3       1 ACP        -0.6550
      9 PA         -3.3163    3.4232    1.4578 P.3       1 ACP         1.5921
     10 O1A        -3.5051    2.5730    0.2200 O.co2     1 ACP        -0.8561
     11 O2A        -4.4645    3.6557    2.4157 O.co2     1 ACP        -0.8561
     12 O3A        -2.7215    4.8747    1.0030 O.3       1 ACP        -0.8166
     13 O5'        -2.0402    2.8619    2.3132 O.3       1 ACP        -0.5737
     14 C5'        -0.8811    2.4285    1.6206 C.3       1 ACP         0.2197
     15 C4'        -0.1994    1.3333    2.4288 C.3       1 ACP         0.0944
     16 O4'        -1.1285    0.2356    2.5840 O.3       1 ACP        -0.4017
     17 C3'         1.0324    0.7610    1.7344 C.3       1 ACP         0.0859
     18 O3'         1.9175    0.2377    2.7247 O.3       1 ACP        -0.5941
     19 C2'         0.4468   -0.3802    0.9263 C.3       1 ACP         0.0924
     20 O2'         1.3993   -1.3703    0.5961 O.3       1 ACP        -0.5928
     21 C1'        -0.6159   -0.9100    1.8769 C.3       1 ACP         0.3967
     22 N9         -1.7127   -1.6108    1.2130 N.pl3     1 ACP        -0.6763
     23 C8         -2.5476   -1.0844    0.2632 C.ar      1 ACP         0.5586
     24 N7         -3.4391   -1.9591   -0.1536 N.2       1 ACP        -0.5795
     25 C5         -3.1701   -3.1016    0.5574 C.ar      1 ACP        -0.2116
     26 C6         -3.7593   -4.3620    0.5656 C.ar      1 ACP         0.7185
     27 N6         -4.8512   -4.6493   -0.2712 N.pl3     1 ACP        -0.9442
     28 N1         -3.2659   -5.3144    1.3932 N.ar      1 ACP        -0.8040
     29 C2         -2.2122   -4.9785    2.1759 C.ar      1 ACP         0.6560
     30 N3         -1.5595   -3.7985    2.2572 N.ar      1 ACP        -0.7058
     31 C4         -2.0986   -2.9054    1.4140 C.ar      1 ACP         0.5729
     32 HOG2        1.4469    6.7930   -0.4439 H         1 ACP         0.4440
     33 HOG3       -0.4309    5.3035   -2.0284 H         1 ACP         0.4440
     34 H3B1       -1.8347    8.3222    0.9897 H         1 ACP         0.1084
     35 H3B2       -2.9759    7.4051    0.0106 H         1 ACP         0.1084
     36 H5'1       -1.1771    2.0504    0.6370 H         1 ACP         0.0281
     37 H5'2       -0.2083    3.2816    1.4878 H         1 ACP         0.0281
     38 H4'         0.0403    1.7078    3.4343 H         1 ACP         0.1082
     39 H3'         1.5906    1.4859    1.1353 H         1 ACP         0.0650
     40 HO3'        2.6839   -0.1150    2.2479 H         1 ACP         0.4300
     41 H2'        -0.0017    0.0018    0.0005 H         1 ACP         0.0785
     42 HO2'        2.0953   -0.9375    0.0709 H         1 ACP         0.4275
     43 H1'        -0.1998   -1.6319    2.6178 H         1 ACP         0.1009
     44 H8         -2.4576   -0.0639   -0.0831 H         1 ACP         0.1067
     45 HN61       -5.2371   -3.9234   -0.8448 H         1 ACP         0.4213
     46 HN62       -5.2909   -5.5485   -0.2160 H         1 ACP         0.4213
     47 H2         -1.8433   -5.7650    2.8259 H         1 ACP         0.0365
@<TRIPOS>BOND
     1    1    2 2
     2    1    3 1
     3    1    4 1
     4    1    8 1
     5    3   32 1
     6    4   33 1
     7    5    6 2
     8    5    7 1
     9    5    8 1
    10    5   12 1
    11    8   34 1
    12    8   35 1
    13    9   10 2
    14    9   11 1
    15    9   12 1
    16    9   13 1
    17   13   14 1
    18   14   15 1
    19   14   36 1
    20   14   37 1
    21   15   16 1
    22   15   17 1
    23   15   38 1
    24   16   21 1
    25   17   18 1
    26   17   19 1
    27   17   39 1
    28   18   40 1
    29   19   20 1
    30   19   21 1
    31   19   41 1
    32   20   42 1
    33   21   22 1
    34   21   43 1
    35   22   23 ar
    36   22   31 ar
    37   23   24 ar
    38   23   44 1
    39   24   25 ar
    40   25   26 ar
    41   25   31 ar
    42   26   27 1
    43   26   28 ar
    44   27   45 1
    45   27   46 1
    46   28   29 ar
    47   29   30 ar
    48   29   47 1
    49   30   31 ar
@<TRIPOS>SUBSTRUCTURE
     1 ACP         1 GROUP 0 A     ****
@<TRIPOS>MOLECULE
[[5-(6-aminopurin-9-yl)-3,4-dihydroxy-tetrahydrofuran-2-yl]methoxy-oxido-phosphoryl]oxy-(phosphonomethyl)phosphinate
   47    49     1     0     0
SMALL
USER_CHARGES

@<TRIPOS>ATOM
      1 PG          2.5907    4.5010   -2.5172 P.3       1 ACP         1.6478
      2 O1G         3.2840    5.8290   -2.5727 O.2       1 ACP        -0.9103
      3 O2G         2.6781    3.7312   -1.0995 O.3       1 ACP        -0.7989
      4 O3G         3.1136    3.4015   -3.5789 O.3       1 ACP        -0.7989
      5 PB         -0.3599    5.5573   -1.8042 P.3       1 ACP         1.4947
      6 O1B        -1.7409    5.3653   -2.3870 O.co2     1 ACP        -0.8554
      7 O2B         0.2504    6.9258   -1.6083 O.co2     1 ACP        -0.8554
      8 C3B         0.8142    4.5733   -2.8406 C.3       1 ACP        -0.6550
      9 PA         -0.7382    5.0055    1.0868 P.3       1 ACP         1.5921
     10 O1A        -2.2516    5.0177    1.0865 O.co2     1 ACP        -0.8561
     11 O2A         0.0419    6.1870    1.6208 O.co2     1 ACP        -0.8561
     12 O3A        -0.2227    4.6896   -0.4304 O.3       1 ACP        -0.8166
     13 O5'        -0.2059    3.6558    1.8419 O.3       1 ACP        -0.5737
     14 C5'        -0.8811    2.4285    1.6206 C.3       1 ACP         0.2197
     15 C4'        -0.1994    1.3333    2.4288 C.3       1 ACP         0.0944
     16 O4'        -1.1285    0.2356    2.5840 O.3       1 ACP        -0.4017
     17 C3'         1.0324    0.7610    1.7344 C.3       1 ACP         0.0859
     18 O3'         1.9175    0.2377    2.7247 O.3       1 ACP        -0.5941
     19 C2'         0.4468   -0.3802    0.9263 C.3       1 ACP         0.0924
     20 O2'         1.3993   -1.3703    0.5961 O.3       1 ACP        -0.5928
     21 C1'        -0.6159   -0.9100    1.8769 C.3       1 ACP         0.3967
     22 N9         -1.7127   -1.6108    1.2130 N.pl3     1 ACP        -0.6763
     23 C8         -2.0877   -2.9101    1.4304 C.ar      1 ACP         0.5586
     24 N7         -3.1152   -3.2613    0.6857 N.2       1 ACP        -0.5795
     25 C5         -3.4186   -2.1409   -0.0462 C.ar      1 ACP        -0.2116
     26 C6         -4.3953   -1.8809   -1.0023 C.ar      1 ACP         0.7185
     27 N6         -5.3118   -2.8767   -1.3812 N.pl3     1 ACP        -0.9442
     28 N1         -4.4538   -0.6507   -1.5667 N.ar      1 ACP        -0.8040
     29 C2         -3.5442    0.2679   -1.1609 C.ar      1 ACP         0.6560
     30 N3         -2.5561    0.1361   -0.2491 N.ar      1 ACP        -0.7058
     31 C4         -2.5568   -1.1019    0.2674 C.ar      1 ACP         0.5729
     32 HOG2        3.5598    3.4929   -0.7419 H         1 ACP         0.4440
     33 HOG3        4.0526    3.1200   -3.5478 H         1 ACP         0.4440
     34 H3B1        0.6789    4.9378   -3.8651 H         1 ACP         0.1084
     35 H3B2        0.4427    3.5425   -2.8166 H         1 ACP         0.1084
     36 H5'1       -1.9255    2.5383    1.9294 H         1 ACP         0.0281
     37 H5'2       -0.8472    2.1934    0.5521 H         1 ACP         0.0281
     38 H4'         0.0403    1.7078    3.4343 H         1 ACP         0.1082
     39 H3'         1.5906    1.4859    1.1353 H         1 ACP         0.0650
     40 HO3'        2.6839   -0.1150    2.2479 H         1 ACP         0.4300
     41 H2'        -0.0017    0.0018    0.0005 H         1 ACP         0.0785
     42 HO2'        2.0953   -0.9375    0.0709 H         1 ACP         0.4275
     43 H1'        -0.1998   -1.6319    2.6178 H         1 ACP         0.1009
     44 H8         -1.5778   -3.5473    2.1399 H         1 ACP         0.1067
     45 HN61       -5.2294   -3.7965   -0.9914 H         1 ACP         0.4213
     46 HN62       -5.9774   -2.6837   -2.1055 H         1 ACP         0.4213
     47 H2         -3.6201    1.2414   -1.6336 H         1 ACP         0.0365
@<TRIPOS>BOND
     1    1    2 2
     2    1    3 1
     3    1    4 1
     4    1    8 1
     5    3   32 1
     6    4   33 1
     7    5    6 2
     8    5    7 1
     9    5    8 1
    10    5   12 1
    11    8   34 1
    12    8   35 1
    13    9   10 2
    14    9   11 1
    15    9   12 1
    16    9   13 1
    17   13   14 1
    18   14   15 1
    19   14   36 1
    20   14   37 1
    21   15   16 1
    22   15   17 1
    23   15   38 1
    24   16   21 1
    25   17   18 1
    26   17   19 1
    27   17   39 1
    28   18   40 1
    29   19   20 1
    30   19   21 1
    31   19   41 1
    32   20   42 1
    33   21   22 1
    34   21   43 1
    35   22   23 ar
    36   22   31 ar
    37   23   24 ar
    38   23   44 1
    39   24   25 ar
    40   25   26 ar
    41   25   31 ar
    42   26   27 1
    43   26   28 ar
    44   27   45 1
    45   27   46 1
    46   28   29 ar
    47   29   30 ar
    48   29   47 1
    49   30   31 ar
@<TRIPOS>SUBSTRUCTURE
     1 ACP         1 GROUP 0 A     ****
@<TRIPOS>MOLECULE
[[5-(6-aminopurin-9-yl)-3,4-dihydroxy-tetrahydrofuran-2-yl]methoxy-oxido-phosphoryl]oxy-(phosphonomethyl)phosphinate
   47    49     1     0     0
SMALL
USER_CHARGES

@<TRIPOS>ATOM
      1 PG         -0.0760    2.2604   -2.9569 P.3       1 ACP         1.6478
      2 O1G        -1.4112    2.1737   -2.2807 O.2       1 ACP        -0.9103
      3 O2G        -0.1028    2.1209   -4.5662 O.3       1 ACP        -0.7989
      4 O3G         1.0063    1.1525   -2.4978 O.3       1 ACP        -0.7989
      5 PB          1.2784    4.4327   -1.0135 P.3       1 ACP         1.4947
      6 O1B         1.9795    5.7576   -1.2045 O.co2     1 ACP        -0.8554
      7 O2B         1.9210    3.2776   -0.2812 O.co2     1 ACP        -0.8554
      8 C3B         0.7946    3.8214   -2.6907 C.3       1 ACP        -0.6550
      9 PA         -0.7382    5.0055    1.0868 P.3       1 ACP         1.5921
     10 O1A        -2.2516    5.0177    1.0865 O.co2     1 ACP        -0.8561
     11 O2A         0.0419    6.1870    1.6208 O.co2     1 ACP        -0.8561
     12 O3A        -0.2227    4.6896   -0.4304 O.3       1 ACP        -0.8166
     13 O5'        -0.2059    3.6558    1.8419 O.3       1 ACP        -0.5737
     14 C5'        -0.8811    2.4285    1.6206 C.3       1 ACP         0.2197
     15 C4'        -0.1994    1.3333    2.4288 C.3       1 ACP         0.0944
     16 O4'        -1.1285    0.2356    2.5840 O.3       1 ACP        -0.4017
     17 C3'         1.0324    0.7610    1.7344 C.3       1 ACP         0.0859
     18 O3'         1.9175    0.2377    2.7247 O.3       1 ACP        -0.5941
     19 C2'         0.4468   -0.3802    0.9263 C.3       1 ACP         0.0924
     20 O2'         1.3993   -1.3703    0.5961 O.3       1 ACP        -0.5928
     21 C1'        -0.6159   -0.9100    1.8769 C.3       1 ACP         0.3967
     22 N9         -1.7127   -1.6108    1.2130 N.pl3     1 ACP        -0.6763
     23 C8         -1.7712   -2.9546    0.9544 C.ar      1 ACP         0.5586
     24 N7         -2.8883   -3.2948    0.3462 N.2       1 ACP        -0.5795
     25 C5         -3.5834   -2.1202    0.2043 C.ar      1 ACP        -0.2116
     26 C6         -4.8225   -1.8251   -0.3554 C.ar      1 ACP         0.7185
     27 N6         -5.6154   -2.8394   -0.9189 N.pl3     1 ACP        -0.9442
     28 N1         -5.2589   -0.5425   -0.3507 N.ar      1 ACP        -0.8040
     29 C2         -4.4510    0.3913    0.2069 C.ar      1 ACP         0.6560
     30 N3         -3.2368    0.2296    0.7767 N.ar      1 ACP        -0.7058
     31 C4         -2.8684   -1.0596    0.7376 C.ar      1 ACP         0.5729
     32 HOG2       -0.4577    1.2985   -4.9659 H         1 ACP         0.4440
     33 HOG3        0.7972    0.2027   -2.6251 H         1 ACP         0.4440
     34 H3B1        1.7241    3.7849   -3.2699 H         1 ACP         0.1084
     35 H3B2        0.1754    4.6118   -3.1300 H         1 ACP         0.1084
     36 H5'1       -1.9255    2.5383    1.9294 H         1 ACP         0.0281
     37 H5'2       -0.8472    2.1934    0.5521 H         1 ACP         0.0281
     38 H4'         0.0403    1.7078    3.4343 H         1 ACP         0.1082
     39 H3'         1.5906    1.4859    1.1353 H         1 ACP         0.0650
     40 HO3'        2.6839   -0.1150    2.2479 H         1 ACP         0.4300
     41 H2'        -0.0017    0.0018    0.0005 H         1 ACP         0.0785
     42 HO2'        2.0953   -0.9375    0.0709 H         1 ACP         0.4275
     43 H1'        -0.1998   -1.6319    2.6178 H         1 ACP         0.1009
     44 H8         -0.9745   -3.6312    1.2318 H         1 ACP         0.1067
     45 HN61       -5.2619   -3.7766   -0.9586 H         1 ACP         0.4213
     46 HN62       -6.4834   -2.5990   -1.3590 H         1 ACP         0.4213
     47 H2         -4.8317    1.4071    0.1930 H         1 ACP         0.0365
@<TRIPOS>BOND
     1    1    2 2
     2    1    3 1
     3    1    4 1
     4    1    8 1
     5    3   32 1
     6    4   33 1
     7    5    6 2
     8    5    7 1
     9    5    8 1
    10    5   12 1
    11    8   34 1
    12    8   35 1
    13    9   10 2
    14    9   11 1
    15    9   12 1
    16    9   13 1
    17   13   14 1
    18   14   15 1
    19   14   36 1
    20   14   37 1
    21   15   16 1
    22   15   17 1
    23   15   38 1
    24   16   21 1
    25   17   18 1
    26   17   19 1
    27   17   39 1
    28   18   40 1
    29   19   20 1
    30   19   21 1
    31   19   41 1
    32   20   42 1
    33   21   22 1
    34   21   43 1
    35   22   23 ar
    36   22   31 ar
    37   23   24 ar
    38   23   44 1
    39   24   25 ar
    40   25   26 ar
    41   25   31 ar
    42   26   27 1
    43   26   28 ar
    44   27   45 1
    45   27   46 1
    46   28   29 ar
    47   29   30 ar
    48   29   47 1
    49   30   31 ar
@<TRIPOS>SUBSTRUCTURE
     1 ACP         1 GROUP 0 A     ****
@<TRIPOS>MOLECULE
[[5-(6-aminopurin-9-yl)-3,4-dihydroxy-tetrahydrofuran-2-yl]methoxy-oxido-phosphoryl]oxy-(phosphonomethyl)phosphinate
   47    49     1     0     0
SMALL
USER_CHARGES

@<TRIPOS>ATOM
      1 PG          5.2534    2.6076   -4.9444 P.3       1 ACP         1.6478
      2 O1G         4.0899    2.8388   -4.0278 O.2       1 ACP        -0.9103
      3 O2G         5.9008    3.9381   -5.5931 O.3       1 ACP        -0.7989
      4 O3G         4.9513    1.6697   -6.2244 O.3       1 ACP        -0.7989
      5 PB          7.5731    2.5172   -2.7216 P.3       1 ACP         1.4947
      6 O1B         8.1212    3.8555   -3.1597 O.co2     1 ACP        -0.8554
      7 O2B         8.4562    1.4295   -2.1553 O.co2     1 ACP        -0.8554
      8 C3B         6.6674    1.7967   -4.1643 C.3       1 ACP        -0.6550
      9 PA          6.1592    3.5244   -0.3148 P.3       1 ACP         1.5921
     10 O1A         6.4205    4.9975   -0.5432 O.co2     1 ACP        -0.8561
     11 O2A         6.9491    2.7529    0.7199 O.co2     1 ACP        -0.8561
     12 O3A         6.2869    2.7480   -1.7461 O.3       1 ACP        -0.8166
     13 O5'         4.5669    3.2941   -0.0211 O.3       1 ACP        -0.5737
     14 C5'         4.0922    1.9801    0.2227 C.3       1 ACP         0.2197
     15 C4'         2.5944    2.0310    0.4653 C.3       1 ACP         0.0944
     16 O4'         1.9327    2.5740   -0.6889 O.3       1 ACP        -0.4017
     17 C3'         1.9685    0.6634    0.6767 C.3       1 ACP         0.0859
     18 O3'         2.1425    0.1975    1.9977 O.3       1 ACP        -0.5941
     19 C2'         0.5176    0.9128    0.3099 C.3       1 ACP         0.0924
     20 O2'        -0.2103    1.4454    1.4152 O.3       1 ACP        -0.5928
     21 C1'         0.6219    1.9765   -0.7844 C.3       1 ACP         0.3967
     22 N9          0.4237    1.4496   -2.1357 N.pl3     1 ACP        -0.6763
     23 C8          1.4026    0.9717   -2.9660 C.ar      1 ACP         0.5586
     24 N7          0.9183    0.5619   -4.1197 N.2       1 ACP        -0.5795
     25 C5         -0.4330    0.7845   -4.0331 C.ar      1 ACP        -0.2116
     26 C6         -1.4794    0.5615   -4.9225 C.ar      1 ACP         0.7185
     27 N6         -1.2378    0.0044   -6.1899 N.pl3     1 ACP        -0.9442
     28 N1         -2.7406    0.8885   -4.5512 N.ar      1 ACP        -0.8040
     29 C2         -2.9113    1.4216   -3.3172 C.ar      1 ACP         0.6560
     30 N3         -1.9824    1.6843   -2.3721 N.ar      1 ACP        -0.7058
     31 C4         -0.7613    1.3370   -2.8054 C.ar      1 ACP         0.5729
     32 HOG2        5.3389    4.5158   -6.1522 H         1 ACP         0.4440
     33 HOG3        4.2642    1.9487   -6.8664 H         1 ACP         0.4440
     34 H3B1        6.3411    0.8021   -3.8399 H         1 ACP         0.1084
     35 H3B2        7.4210    1.6465   -4.9458 H         1 ACP         0.1084
     36 H5'1        4.3181    1.3551   -0.6470 H         1 ACP         0.0281
     37 H5'2        4.6085    1.5740    1.0982 H         1 ACP         0.0281
     38 H4'         2.3751    2.7029    1.3156 H         1 ACP         0.1082
     39 H3'         2.4336   -0.1217   -0.0015 H         1 ACP         0.0650
     40 HO3'        1.7160   -0.6716    2.0397 H         1 ACP         0.4300
     41 H2'         0.0316    0.0155   -0.0339 H         1 ACP         0.0785
     42 HO2'       -0.1608    0.7921    2.1351 H         1 ACP         0.4275
     43 H1'        -0.1474    2.7798   -0.6651 H         1 ACP         0.1009
     44 H8          2.4442    0.9470   -2.6763 H         1 ACP         0.1067
     45 HN61       -0.2955   -0.1901   -6.4713 H         1 ACP         0.4213
     46 HN62       -1.9987   -0.1045   -6.8334 H         1 ACP         0.4213
     47 H2         -3.9335    1.6716   -3.0534 H         1 ACP         0.0365
@<TRIPOS>BOND
     1    1    2 2
     2    1    3 1
     3    1    4 1
     4    1    8 1
     5    3   32 1
     6    4   33 1
     7    5    6 2
     8    5    7 1
     9    5    8 1
    10    5   12 1
    11    8   34 1
    12    8   35 1
    13    9   10 2
    14    9   11 1
    15    9   12 1
    16    9   13 1
    17   13   14 1
    18   14   15 1
    19   14   36 1
    20   14   37 1
    21   15   16 1
    22   15   17 1
    23   15   38 1
    24   16   21 1
    25   17   18 1
    26   17   19 1
    27   17   39 1
    28   18   40 1
    29   19   20 1
    30   19   21 1
    31   19   41 1
    32   20   42 1
    33   21   22 1
    34   21   43 1
    35   22   23 ar
    36   22   31 ar
    37   23   24 ar
    38   23   44 1
    39   24   25 ar
    40   25   26 ar
    41   25   31 ar
    42   26   27 1
    43   26   28 ar
    44   27   45 1
    45   27   46 1
    46   28   29 ar
    47   29   30 ar
    48   29   47 1
    49   30   31 ar
@<TRIPOS>SUBSTRUCTURE
     1 ACP         1 GROUP 0 A     ****
@<TRIPOS>MOLECULE
[[5-(6-aminopurin-9-yl)-3,4-dihydroxy-tetrahydrofuran-2-yl]methoxy-oxido-phosphoryl]oxy-(phosphonomethyl)phosphinate
   47    49     1     0     0
SMALL
USER_CHARGES

@<TRIPOS>ATOM
      1 PG         -0.0760    2.2604   -2.9569 P.3       1 ACP         1.6478
      2 O1G        -1.4112    2.1737   -2.2807 O.2       1 ACP        -0.9103
      3 O2G        -0.1028    2.1209   -4.5662 O.3       1 ACP        -0.7989
      4 O3G         1.0063    1.1525   -2.4978 O.3       1 ACP        -0.7989
      5 PB          1.2784    4.4327   -1.0135 P.3       1 ACP         1.4947
      6 O1B         1.9795    5.7576   -1.2045 O.co2     1 ACP        -0.8554
      7 O2B         1.9210    3.2776   -0.2812 O.co2     1 ACP        -0.8554
      8 C3B         0.7946    3.8214   -2.6907 C.3       1 ACP        -0.6550
      9 PA         -0.7382    5.0055    1.0868 P.3       1 ACP         1.5921
     10 O1A        -2.2516    5.0177    1.0865 O.co2     1 ACP        -0.8561
     11 O2A         0.0419    6.1870    1.6208 O.co2     1 ACP        -0.8561
     12 O3A        -0.2227    4.6896   -0.4304 O.3       1 ACP        -0.8166
     13 O5'        -0.2059    3.6558    1.8419 O.3       1 ACP        -0.5737
     14 C5'        -0.8811    2.4285    1.6206 C.3       1 ACP         0.2197
     15 C4'        -0.1994    1.3333    2.4288 C.3       1 ACP         0.0944
     16 O4'        -1.1285    0.2356    2.5840 O.3       1 ACP        -0.4017
     17 C3'         1.0324    0.7610    1.7344 C.3       1 ACP         0.0859
     18 O3'         1.9175    0.2377    2.7247 O.3       1 ACP        -0.5941
     19 C2'         0.4468   -0.3802    0.9263 C.3       1 ACP         0.0924
     20 O2'         1.3993   -1.3703    0.5961 O.3       1 ACP        -0.5928
     21 C1'        -0.6159   -0.9100    1.8769 C.3       1 ACP         0.3967
     22 N9         -1.7127   -1.6108    1.2130 N.pl3     1 ACP        -0.6763
     23 C8         -2.8641   -1.0399    0.7392 C.ar      1 ACP         0.5586
     24 N7         -3.6659   -1.9257    0.1858 N.2       1 ACP        -0.5795
     25 C5         -3.0053   -3.1223    0.3069 C.ar      1 ACP        -0.2116
     26 C6         -3.3321   -4.4178   -0.0813 C.ar      1 ACP         0.7185
     27 N6         -4.5476   -4.6866   -0.7335 N.pl3     1 ACP        -0.9442
     28 N1         -2.4608   -5.4225    0.1773 N.ar      1 ACP        -0.8040
     29 C2         -1.3053   -5.1020    0.8081 C.ar      1 ACP         0.6560
     30 N3         -0.8788   -3.8921    1.2315 N.ar      1 ACP        -0.7058
     31 C4         -1.7870   -2.9477    0.9438 C.ar      1 ACP         0.5729
     32 HOG2       -0.4577    1.2985   -4.9659 H         1 ACP         0.4440
     33 HOG3        0.7972    0.2027   -2.6251 H         1 ACP         0.4440
     34 H3B1        1.7241    3.7849   -3.2699 H         1 ACP         0.1084
     35 H3B2        0.1754    4.6118   -3.1300 H         1 ACP         0.1084
     36 H5'1       -1.9255    2.5383    1.9294 H         1 ACP         0.0281
     37 H5'2       -0.8472    2.1934    0.5521 H         1 ACP         0.0281
     38 H4'         0.0403    1.7078    3.4343 H         1 ACP         0.1082
     39 H3'         1.5906    1.4859    1.1353 H         1 ACP         0.0650
     40 HO3'        2.6839   -0.1150    2.2479 H         1 ACP         0.4300
     41 H2'        -0.0017    0.0018    0.0005 H         1 ACP         0.0785
     42 HO2'        2.0953   -0.9375    0.0709 H         1 ACP         0.4275
     43 H1'        -0.1998   -1.6319    2.6178 H         1 ACP         0.1009
     44 H8         -3.0609    0.0200    0.8250 H         1 ACP         0.1067
     45 HN61       -5.2046   -3.9433   -0.8775 H         1 ACP         0.4213
     46 HN62       -4.7849   -5.6332   -0.9625 H         1 ACP         0.4213
     47 H2         -0.6318   -5.9307    0.9993 H         1 ACP         0.0365
@<TRIPOS>BOND
     1    1    2 2
     2    1    3 1
     3    1    4 1
     4    1    8 1
     5    3   32 1
     6    4   33 1
     7    5    6 2
     8    5    7 1
     9    5    8 1
    10    5   12 1
    11    8   34 1
    12    8   35 1
    13    9   10 2
    14    9   11 1
    15    9   12 1
    16    9   13 1
    17   13   14 1
    18   14   15 1
    19   14   36 1
    20   14   37 1
    21   15   16 1
    22   15   17 1
    23   15   38 1
    24   16   21 1
    25   17   18 1
    26   17   19 1
    27   17   39 1
    28   18   40 1
    29   19   20 1
    30   19   21 1
    31   19   41 1
    32   20   42 1
    33   21   22 1
    34   21   43 1
    35   22   23 ar
    36   22   31 ar
    37   23   24 ar
    38   23   44 1
    39   24   25 ar
    40   25   26 ar
    41   25   31 ar
    42   26   27 1
    43   26   28 ar
    44   27   45 1
    45   27   46 1
    46   28   29 ar
    47   29   30 ar
    48   29   47 1
    49   30   31 ar
@<TRIPOS>SUBSTRUCTURE
     1 ACP         1 GROUP 0 A     ****
@<TRIPOS>MOLECULE
[[5-(6-aminopurin-9-yl)-3,4-dihydroxy-tetrahydrofuran-2-yl]methoxy-oxido-phosphoryl]oxy-(phosphonomethyl)phosphinate
   47    49     1     0     0
SMALL
USER_CHARGES

@<TRIPOS>ATOM
      1 PG         -0.9071    4.8482   -4.1625 P.3       1 ACP         1.6478
      2 O1G        -0.0235    6.0199   -4.4685 O.2       1 ACP        -0.9103
      3 O2G        -1.6268    4.1693   -5.4398 O.3       1 ACP        -0.7989
      4 O3G        -2.1315    5.1489   -3.1525 O.3       1 ACP        -0.7989
      5 PB          0.8133    3.5976   -1.7529 P.3       1 ACP         1.4947
      6 O1B         1.8969    4.6386   -1.9130 O.co2     1 ACP        -0.8554
      7 O2B         1.1069    2.1933   -1.2780 O.co2     1 ACP        -0.8554
      8 C3B        -0.0583    3.4589   -3.3783 C.3       1 ACP        -0.6550
      9 PA         -0.4662    4.8323    0.6228 P.3       1 ACP         1.5921
     10 O1A        -1.9048    5.1484    0.9710 O.co2     1 ACP        -0.8561
     11 O2A         0.6070    5.8922    0.7447 O.co2     1 ACP        -0.8561
     12 O3A        -0.4219    4.2246   -0.8925 O.3       1 ACP        -0.8166
     13 O5'         0.0182    3.5132    1.4596 O.3       1 ACP        -0.5737
     14 C5'        -0.8811    2.4285    1.6206 C.3       1 ACP         0.2197
     15 C4'        -0.1994    1.3333    2.4288 C.3       1 ACP         0.0944
     16 O4'        -1.1285    0.2356    2.5840 O.3       1 ACP        -0.4017
     17 C3'         1.0324    0.7610    1.7344 C.3       1 ACP         0.0859
     18 O3'         1.9175    0.2377    2.7247 O.3       1 ACP        -0.5941
     19 C2'         0.4468   -0.3802    0.9263 C.3       1 ACP         0.0924
     20 O2'         1.3993   -1.3703    0.5961 O.3       1 ACP        -0.5928
     21 C1'        -0.6159   -0.9100    1.8769 C.3       1 ACP         0.3967
     22 N9         -1.7127   -1.6108    1.2130 N.pl3     1 ACP        -0.6763
     23 C8         -2.0877   -2.9101    1.4304 C.ar      1 ACP         0.5586
     24 N7         -3.1152   -3.2613    0.6857 N.2       1 ACP        -0.5795
     25 C5         -3.4186   -2.1409   -0.0462 C.ar      1 ACP        -0.2116
     26 C6         -4.3953   -1.8809   -1.0023 C.ar      1 ACP         0.7185
     27 N6         -5.3118   -2.8767   -1.3812 N.pl3     1 ACP        -0.9442
     28 N1         -4.4538   -0.6507   -1.5667 N.ar      1 ACP        -0.8040
     29 C2         -3.5442    0.2679   -1.1609 C.ar      1 ACP         0.6560
     30 N3         -2.5561    0.1361   -0.2491 N.ar      1 ACP        -0.7058
     31 C4         -2.5568   -1.1019    0.2674 C.ar      1 ACP         0.5729
     32 HOG2       -2.2284    4.7137   -5.9910 H         1 ACP         0.4440
     33 HOG3       -2.7994    5.8223   -3.4025 H         1 ACP         0.4440
     34 H3B1       -0.7897    2.6527   -3.2521 H         1 ACP         0.1084
     35 H3B2        0.6930    3.0998   -4.0909 H         1 ACP         0.1084
     36 H5'1       -1.7769    2.7852    2.1386 H         1 ACP         0.0281
     37 H5'2       -1.1652    2.0544    0.6320 H         1 ACP         0.0281
     38 H4'         0.0403    1.7078    3.4343 H         1 ACP         0.1082
     39 H3'         1.5906    1.4859    1.1353 H         1 ACP         0.0650
     40 HO3'        2.1521    0.9800    3.3017 H         1 ACP         0.4300
     41 H2'        -0.0017    0.0018    0.0005 H         1 ACP         0.0785
     42 HO2'        0.9369   -2.0558    0.0825 H         1 ACP         0.4275
     43 H1'        -0.1998   -1.6319    2.6178 H         1 ACP         0.1009
     44 H8         -1.5778   -3.5473    2.1399 H         1 ACP         0.1067
     45 HN61       -5.2294   -3.7965   -0.9914 H         1 ACP         0.4213
     46 HN62       -5.9774   -2.6837   -2.1055 H         1 ACP         0.4213
     47 H2         -3.6201    1.2414   -1.6336 H         1 ACP         0.0365
@<TRIPOS>BOND
     1    1    2 2
     2    1    3 1
     3    1    4 1
     4    1    8 1
     5    3   32 1
     6    4   33 1
     7    5    6 2
     8    5    7 1
     9    5    8 1
    10    5   12 1
    11    8   34 1
    12    8   35 1
    13    9   10 2
    14    9   11 1
    15    9   12 1
    16    9   13 1
    17   13   14 1
    18   14   15 1
    19   14   36 1
    20   14   37 1
    21   15   16 1
    22   15   17 1
    23   15   38 1
    24   16   21 1
    25   17   18 1
    26   17   19 1
    27   17   39 1
    28   18   40 1
    29   19   20 1
    30   19   21 1
    31   19   41 1
    32   20   42 1
    33   21   22 1
    34   21   43 1
    35   22   23 ar
    36   22   31 ar
    37   23   24 ar
    38   23   44 1
    39   24   25 ar
    40   25   26 ar
    41   25   31 ar
    42   26   27 1
    43   26   28 ar
    44   27   45 1
    45   27   46 1
    46   28   29 ar
    47   29   30 ar
    48   29   47 1
    49   30   31 ar
@<TRIPOS>SUBSTRUCTURE
     1 ACP         1 GROUP 0 A     ****
@<TRIPOS>MOLECULE
[[5-(6-aminopurin-9-yl)-3,4-dihydroxy-tetrahydrofuran-2-yl]methoxy-oxido-phosphoryl]oxy-(phosphonomethyl)phosphinate
   47    49     1     0     0
SMALL
USER_CHARGES

@<TRIPOS>ATOM
      1 PG         -0.6210    6.6874   -1.5459 P.3       1 ACP         1.6478
      2 O1G         0.8493    6.4399   -1.3901 O.2       1 ACP        -0.9103
      3 O2G        -1.5024    5.3970   -1.9562 O.3       1 ACP        -0.7989
      4 O3G        -1.0243    7.7906   -2.6549 O.3       1 ACP        -0.7989
      5 PB         -1.4708    6.3353    1.5337 P.3       1 ACP         1.4947
      6 O1B        -2.2407    7.1611    2.5381 O.co2     1 ACP        -0.8554
      7 O2B        -0.0638    5.8505    1.7965 O.co2     1 ACP        -0.8554
      8 C3B        -1.4384    7.2890   -0.0507 C.3       1 ACP        -0.6550
      9 PA         -3.0799    3.8626    1.8539 P.3       1 ACP         1.5921
     10 O1A        -3.7199    2.9140    0.8633 O.co2     1 ACP        -0.8561
     11 O2A        -3.8856    4.4438    2.9954 O.co2     1 ACP        -0.8561
     12 O3A        -2.3969    5.0932    1.0252 O.3       1 ACP        -0.8166
     13 O5'        -1.7337    3.1724    2.4754 O.3       1 ACP        -0.5737
     14 C5'        -0.8811    2.4285    1.6206 C.3       1 ACP         0.2197
     15 C4'        -0.1994    1.3333    2.4288 C.3       1 ACP         0.0944
     16 O4'        -1.1285    0.2356    2.5840 O.3       1 ACP        -0.4017
     17 C3'         1.0324    0.7610    1.7344 C.3       1 ACP         0.0859
     18 O3'         1.9175    0.2377    2.7247 O.3       1 ACP        -0.5941
     19 C2'         0.4468   -0.3802    0.9263 C.3       1 ACP         0.0924
     20 O2'         1.3993   -1.3703    0.5961 O.3       1 ACP        -0.5928
     21 C1'        -0.6159   -0.9100    1.8769 C.3       1 ACP         0.3967
     22 N9         -1.7127   -1.6108    1.2130 N.pl3     1 ACP        -0.6763
     23 C8         -2.8641   -1.0399    0.7392 C.ar      1 ACP         0.5586
     24 N7         -3.6659   -1.9257    0.1858 N.2       1 ACP        -0.5795
     25 C5         -3.0053   -3.1223    0.3069 C.ar      1 ACP        -0.2116
     26 C6         -3.3321   -4.4178   -0.0813 C.ar      1 ACP         0.7185
     27 N6         -4.5476   -4.6866   -0.7335 N.pl3     1 ACP        -0.9442
     28 N1         -2.4608   -5.4225    0.1773 N.ar      1 ACP        -0.8040
     29 C2         -1.3053   -5.1020    0.8081 C.ar      1 ACP         0.6560
     30 N3         -0.8788   -3.8921    1.2315 N.ar      1 ACP        -0.7058
     31 C4         -1.7870   -2.9477    0.9438 C.ar      1 ACP         0.5729
     32 HOG2       -1.3041    4.9345   -2.7981 H         1 ACP         0.4440
     33 HOG3       -0.7628    7.6432   -3.5887 H         1 ACP         0.4440
     34 H3B1       -0.9973    8.2604    0.1996 H         1 ACP         0.1084
     35 H3B2       -2.4871    7.4720   -0.3111 H         1 ACP         0.1084
     36 H5'1       -1.4802    1.9929    0.8148 H         1 ACP         0.0281
     37 H5'2       -0.1370    3.1043    1.1873 H         1 ACP         0.0281
     38 H4'         0.0403    1.7078    3.4343 H         1 ACP         0.1082
     39 H3'         1.5906    1.4859    1.1353 H         1 ACP         0.0650
     40 HO3'        2.1521    0.9800    3.3017 H         1 ACP         0.4300
     41 H2'        -0.0017    0.0018    0.0005 H         1 ACP         0.0785
     42 HO2'        0.9369   -2.0558    0.0825 H         1 ACP         0.4275
     43 H1'        -0.1998   -1.6319    2.6178 H         1 ACP         0.1009
     44 H8         -3.0609    0.0200    0.8250 H         1 ACP         0.1067
     45 HN61       -5.2046   -3.9433   -0.8775 H         1 ACP         0.4213
     46 HN62       -4.7849   -5.6332   -0.9625 H         1 ACP         0.4213
     47 H2         -0.6318   -5.9307    0.9993 H         1 ACP         0.0365
@<TRIPOS>BOND
     1    1    2 2
     2    1    3 1
     3    1    4 1
     4    1    8 1
     5    3   32 1
     6    4   33 1
     7    5    6 2
     8    5    7 1
     9    5    8 1
    10    5   12 1
    11    8   34 1
    12    8   35 1
    13    9   10 2
    14    9   11 1
    15    9   12 1
    16    9   13 1
    17   13   14 1
    18   14   15 1
    19   14   36 1
    20   14   37 1
    21   15   16 1
    22   15   17 1
    23   15   38 1
    24   16   21 1
    25   17   18 1
    26   17   19 1
    27   17   39 1
    28   18   40 1
    29   19   20 1
    30   19   21 1
    31   19   41 1
    32   20   42 1
    33   21   22 1
    34   21   43 1
    35   22   23 ar
    36   22   31 ar
    37   23   24 ar
    38   23   44 1
    39   24   25 ar
    40   25   26 ar
    41   25   31 ar
    42   26   27 1
    43   26   28 ar
    44   27   45 1
    45   27   46 1
    46   28   29 ar
    47   29   30 ar
    48   29   47 1
    49   30   31 ar
@<TRIPOS>SUBSTRUCTURE
     1 ACP         1 GROUP 0 A     ****
@<TRIPOS>MOLECULE
[[5-(6-aminopurin-9-yl)-3,4-dihydroxy-tetrahydrofuran-2-yl]methoxy-oxido-phosphoryl]oxy-(phosphonomethyl)phosphinate
   47    49     1     0     0
SMALL
USER_CHARGES

@<TRIPOS>ATOM
      1 PG          2.3453    4.3550   -2.1635 P.3       1 ACP         1.6478
      2 O1G         2.3273    3.7902   -3.5520 O.2       1 ACP        -0.9103
      3 O2G         3.7113    5.1047   -1.7369 O.3       1 ACP        -0.7989
      4 O3G         2.1138    3.2837   -0.9767 O.3       1 ACP        -0.7989
      5 PB         -0.7367    5.2513   -1.9966 P.3       1 ACP         1.4947
      6 O1B        -0.9954    4.8244   -3.4229 O.co2     1 ACP        -0.8554
      7 O2B        -1.4715    6.4046   -1.3533 O.co2     1 ACP        -0.8554
      8 C3B         1.0737    5.5997   -1.8483 C.3       1 ACP        -0.6550
      9 PA         -1.9976    2.8864   -0.7224 P.3       1 ACP         1.5921
     10 O1A        -2.2799    2.1137   -1.9928 O.co2     1 ACP        -0.8561
     11 O2A        -3.1098    3.6160   -0.0008 O.co2     1 ACP        -0.8561
     12 O3A        -0.7917    3.9473   -1.0190 O.3       1 ACP        -0.8166
     13 O5'        -1.2434    1.9101    0.3513 O.3       1 ACP        -0.5737
     14 C5'        -0.8811    2.4285    1.6206 C.3       1 ACP         0.2197
     15 C4'        -0.1994    1.3333    2.4288 C.3       1 ACP         0.0944
     16 O4'        -1.1285    0.2356    2.5840 O.3       1 ACP        -0.4017
     17 C3'         1.0324    0.7610    1.7344 C.3       1 ACP         0.0859
     18 O3'         1.9175    0.2377    2.7247 O.3       1 ACP        -0.5941
     19 C2'         0.4468   -0.3802    0.9263 C.3       1 ACP         0.0924
     20 O2'         1.3993   -1.3703    0.5961 O.3       1 ACP        -0.5928
     21 C1'        -0.6159   -0.9100    1.8769 C.3       1 ACP         0.3967
     22 N9         -1.7127   -1.6108    1.2130 N.pl3     1 ACP        -0.6763
     23 C8         -2.8641   -1.0399    0.7392 C.ar      1 ACP         0.5586
     24 N7         -3.6659   -1.9257    0.1858 N.2       1 ACP        -0.5795
     25 C5         -3.0053   -3.1223    0.3069 C.ar      1 ACP        -0.2116
     26 C6         -3.3321   -4.4178   -0.0813 C.ar      1 ACP         0.7185
     27 N6         -4.5476   -4.6866   -0.7335 N.pl3     1 ACP        -0.9442
     28 N1         -2.4608   -5.4225    0.1773 N.ar      1 ACP        -0.8040
     29 C2         -1.3053   -5.1020    0.8081 C.ar      1 ACP         0.6560
     30 N3         -0.8788   -3.8921    1.2315 N.ar      1 ACP        -0.7058
     31 C4         -1.7870   -2.9477    0.9438 C.ar      1 ACP         0.5729
     32 HOG2        4.5517    4.5990   -1.7400 H         1 ACP         0.4440
     33 HOG3        2.7438    2.5382   -0.8800 H         1 ACP         0.4440
     34 H3B1        1.2193    5.9705   -0.8274 H         1 ACP         0.1084
     35 H3B2        1.2731    6.4389   -2.5244 H         1 ACP         0.1084
     36 H5'1       -0.2035    3.2759    1.4765 H         1 ACP         0.0281
     37 H5'2       -1.7842    2.7761    2.1320 H         1 ACP         0.0281
     38 H4'         0.0403    1.7078    3.4343 H         1 ACP         0.1082
     39 H3'         1.5906    1.4859    1.1353 H         1 ACP         0.0650
     40 HO3'        2.6839   -0.1150    2.2479 H         1 ACP         0.4300
     41 H2'        -0.0017    0.0018    0.0005 H         1 ACP         0.0785
     42 HO2'        2.0953   -0.9375    0.0709 H         1 ACP         0.4275
     43 H1'        -0.1998   -1.6319    2.6178 H         1 ACP         0.1009
     44 H8         -3.0609    0.0200    0.8250 H         1 ACP         0.1067
     45 HN61       -5.2046   -3.9433   -0.8775 H         1 ACP         0.4213
     46 HN62       -4.7849   -5.6332   -0.9625 H         1 ACP         0.4213
     47 H2         -0.6318   -5.9307    0.9993 H         1 ACP         0.0365
@<TRIPOS>BOND
     1    1    2 2
     2    1    3 1
     3    1    4 1
     4    1    8 1
     5    3   32 1
     6    4   33 1
     7    5    6 2
     8    5    7 1
     9    5    8 1
    10    5   12 1
    11    8   34 1
    12    8   35 1
    13    9   10 2
    14    9   11 1
    15    9   12 1
    16    9   13 1
    17   13   14 1
    18   14   15 1
    19   14   36 1
    20   14   37 1
    21   15   16 1
    22   15   17 1
    23   15   38 1
    24   16   21 1
    25   17   18 1
    26   17   19 1
    27   17   39 1
    28   18   40 1
    29   19   20 1
    30   19   21 1
    31   19   41 1
    32   20   42 1
    33   21   22 1
    34   21   43 1
    35   22   23 ar
    36   22   31 ar
    37   23   24 ar
    38   23   44 1
    39   24   25 ar
    40   25   26 ar
    41   25   31 ar
    42   26   27 1
    43   26   28 ar
    44   27   45 1
    45   27   46 1
    46   28   29 ar
    47   29   30 ar
    48   29   47 1
    49   30   31 ar
@<TRIPOS>SUBSTRUCTURE
     1 ACP         1 GROUP 0 A     ****
@<TRIPOS>MOLECULE
[[5-(6-aminopurin-9-yl)-3,4-dihydroxy-tetrahydrofuran-2-yl]methoxy-oxido-phosphoryl]oxy-(phosphonomethyl)phosphinate
   47    49     1     0     0
SMALL
USER_CHARGES

@<TRIPOS>ATOM
      1 PG         -3.4846    6.8814    4.5188 P.3       1 ACP         1.6478
      2 O1G        -3.2717    5.4308    4.8311 O.2       1 ACP        -0.9103
      3 O2G        -2.3335    7.8822    5.0513 O.3       1 ACP        -0.7989
      4 O3G        -4.8464    7.5237    5.1043 O.3       1 ACP        -0.7989
      5 PB         -2.1970    6.9070    1.5741 P.3       1 ACP         1.4947
      6 O1B        -0.9933    7.6886    2.0471 O.co2     1 ACP        -0.8554
      7 O2B        -2.7526    7.0483    0.1759 O.co2     1 ACP        -0.8554
      8 C3B        -3.5774    7.2584    2.7539 C.3       1 ACP        -0.6550
      9 PA         -2.9648    4.0418    1.6589 P.3       1 ACP         1.5921
     10 O1A        -3.0690    3.8284    0.1642 O.co2     1 ACP        -0.8561
     11 O2A        -4.2106    4.1925    2.5047 O.co2     1 ACP        -0.8561
     12 O3A        -1.9968    5.3287    1.9318 O.3       1 ACP        -0.8166
     13 O5'        -2.0402    2.8619    2.3132 O.3       1 ACP        -0.5737
     14 C5'        -0.8811    2.4285    1.6206 C.3       1 ACP         0.2197
     15 C4'        -0.1994    1.3333    2.4288 C.3       1 ACP         0.0944
     16 O4'        -1.1285    0.2356    2.5840 O.3       1 ACP        -0.4017
     17 C3'         1.0324    0.7610    1.7344 C.3       1 ACP         0.0859
     18 O3'         1.9175    0.2377    2.7247 O.3       1 ACP        -0.5941
     19 C2'         0.4468   -0.3802    0.9263 C.3       1 ACP         0.0924
     20 O2'         1.3993   -1.3703    0.5961 O.3       1 ACP        -0.5928
     21 C1'        -0.6159   -0.9100    1.8769 C.3       1 ACP         0.3967
     22 N9         -1.7127   -1.6108    1.2130 N.pl3     1 ACP        -0.6763
     23 C8         -1.7712   -2.9546    0.9544 C.ar      1 ACP         0.5586
     24 N7         -2.8883   -3.2948    0.3462 N.2       1 ACP        -0.5795
     25 C5         -3.5834   -2.1202    0.2043 C.ar      1 ACP        -0.2116
     26 C6         -4.8225   -1.8251   -0.3554 C.ar      1 ACP         0.7185
     27 N6         -5.6154   -2.8394   -0.9189 N.pl3     1 ACP        -0.9442
     28 N1         -5.2589   -0.5425   -0.3507 N.ar      1 ACP        -0.8040
     29 C2         -4.4510    0.3913    0.2069 C.ar      1 ACP         0.6560
     30 N3         -3.2368    0.2296    0.7767 N.ar      1 ACP        -0.7058
     31 C4         -2.8684   -1.0596    0.7376 C.ar      1 ACP         0.5729
     32 HOG2       -2.1508    7.9267    6.0139 H         1 ACP         0.4440
     33 HOG3       -4.9945    7.5208    6.0739 H         1 ACP         0.4440
     34 H3B1       -4.4508    6.7349    2.3491 H         1 ACP         0.1084
     35 H3B2       -3.7796    8.3320    2.6664 H         1 ACP         0.1084
     36 H5'1       -1.1771    2.0504    0.6370 H         1 ACP         0.0281
     37 H5'2       -0.2083    3.2816    1.4878 H         1 ACP         0.0281
     38 H4'         0.0403    1.7078    3.4343 H         1 ACP         0.1082
     39 H3'         1.5906    1.4859    1.1353 H         1 ACP         0.0650
     40 HO3'        2.6839   -0.1150    2.2479 H         1 ACP         0.4300
     41 H2'        -0.0017    0.0018    0.0005 H         1 ACP         0.0785
     42 HO2'        2.0953   -0.9375    0.0709 H         1 ACP         0.4275
     43 H1'        -0.1998   -1.6319    2.6178 H         1 ACP         0.1009
     44 H8         -0.9745   -3.6312    1.2318 H         1 ACP         0.1067
     45 HN61       -5.2619   -3.7766   -0.9586 H         1 ACP         0.4213
     46 HN62       -6.4834   -2.5990   -1.3590 H         1 ACP         0.4213
     47 H2         -4.8317    1.4071    0.1930 H         1 ACP         0.0365
@<TRIPOS>BOND
     1    1    2 2
     2    1    3 1
     3    1    4 1
     4    1    8 1
     5    3   32 1
     6    4   33 1
     7    5    6 2
     8    5    7 1
     9    5    8 1
    10    5   12 1
    11    8   34 1
    12    8   35 1
    13    9   10 2
    14    9   11 1
    15    9   12 1
    16    9   13 1
    17   13   14 1
    18   14   15 1
    19   14   36 1
    20   14   37 1
    21   15   16 1
    22   15   17 1
    23   15   38 1
    24   16   21 1
    25   17   18 1
    26   17   19 1
    27   17   39 1
    28   18   40 1
    29   19   20 1
    30   19   21 1
    31   19   41 1
    32   20   42 1
    33   21   22 1
    34   21   43 1
    35   22   23 ar
    36   22   31 ar
    37   23   24 ar
    38   23   44 1
    39   24   25 ar
    40   25   26 ar
    41   25   31 ar
    42   26   27 1
    43   26   28 ar
    44   27   45 1
    45   27   46 1
    46   28   29 ar
    47   29   30 ar
    48   29   47 1
    49   30   31 ar
@<TRIPOS>SUBSTRUCTURE
     1 ACP         1 GROUP 0 A     ****
@<TRIPOS>MOLECULE
[[5-(6-aminopurin-9-yl)-3,4-dihydroxy-tetrahydrofuran-2-yl]methoxy-oxido-phosphoryl]oxy-(phosphonomethyl)phosphinate
   47    49     1     0     0
SMALL
USER_CHARGES

@<TRIPOS>ATOM
      1 PG         -4.7572    4.9919    1.4374 P.3       1 ACP         1.6478
      2 O1G        -4.3670    4.0389    2.5268 O.2       1 ACP        -0.9103
      3 O2G        -6.1938    5.7076    1.6231 O.3       1 ACP        -0.7989
      4 O3G        -4.8398    4.3540   -0.0444 O.3       1 ACP        -0.7989
      5 PB         -1.8375    6.1739    0.7989 P.3       1 ACP         1.4947
      6 O1B        -1.2330    7.5559    0.7080 O.co2     1 ACP        -0.8554
      7 O2B        -1.7585    5.1820   -0.3384 O.co2     1 ACP        -0.8554
      8 C3B        -3.6252    6.3842    1.2238 C.3       1 ACP        -0.6550
      9 PA          0.0332    4.7082    2.5761 P.3       1 ACP         1.5921
     10 O1A        -0.1148    4.1078    3.9574 O.co2     1 ACP        -0.8561
     11 O2A         1.1835    5.6391    2.2595 O.co2     1 ACP        -0.8561
     12 O3A        -1.3627    5.4617    2.1868 O.3       1 ACP        -0.8166
     13 O5'         0.0182    3.5132    1.4596 O.3       1 ACP        -0.5737
     14 C5'        -0.8811    2.4285    1.6206 C.3       1 ACP         0.2197
     15 C4'        -0.1994    1.3333    2.4288 C.3       1 ACP         0.0944
     16 O4'        -1.1285    0.2356    2.5840 O.3       1 ACP        -0.4017
     17 C3'         1.0324    0.7610    1.7344 C.3       1 ACP         0.0859
     18 O3'         1.9175    0.2377    2.7247 O.3       1 ACP        -0.5941
     19 C2'         0.4468   -0.3802    0.9263 C.3       1 ACP         0.0924
     20 O2'         1.3993   -1.3703    0.5961 O.3       1 ACP        -0.5928
     21 C1'        -0.6159   -0.9100    1.8769 C.3       1 ACP         0.3967
     22 N9         -1.7127   -1.6108    1.2130 N.pl3     1 ACP        -0.6763
     23 C8         -1.7712   -2.9546    0.9544 C.ar      1 ACP         0.5586
     24 N7         -2.8883   -3.2948    0.3462 N.2       1 ACP        -0.5795
     25 C5         -3.5834   -2.1202    0.2043 C.ar      1 ACP        -0.2116
     26 C6         -4.8225   -1.8251   -0.3554 C.ar      1 ACP         0.7185
     27 N6         -5.6154   -2.8394   -0.9189 N.pl3     1 ACP        -0.9442
     28 N1         -5.2589   -0.5425   -0.3507 N.ar      1 ACP        -0.8040
     29 C2         -4.4510    0.3913    0.2069 C.ar      1 ACP         0.6560
     30 N3         -3.2368    0.2296    0.7767 N.ar      1 ACP        -0.7058
     31 C4         -2.8684   -1.0596    0.7376 C.ar      1 ACP         0.5729
     32 HOG2       -6.9990    5.1500    1.6762 H         1 ACP         0.4440
     33 HOG3       -5.4666    3.6182   -0.2107 H         1 ACP         0.4440
     34 H3B1       -4.0395    7.0306    0.4419 H         1 ACP         0.1084
     35 H3B2       -3.6453    6.9587    2.1569 H         1 ACP         0.1084
     36 H5'1       -1.7769    2.7852    2.1386 H         1 ACP         0.0281
     37 H5'2       -1.1652    2.0544    0.6320 H         1 ACP         0.0281
     38 H4'         0.0403    1.7078    3.4343 H         1 ACP         0.1082
     39 H3'         1.5906    1.4859    1.1353 H         1 ACP         0.0650
     40 HO3'        2.6839   -0.1150    2.2479 H         1 ACP         0.4300
     41 H2'        -0.0017    0.0018    0.0005 H         1 ACP         0.0785
     42 HO2'        2.0953   -0.9375    0.0709 H         1 ACP         0.4275
     43 H1'        -0.1998   -1.6319    2.6178 H         1 ACP         0.1009
     44 H8         -0.9745   -3.6312    1.2318 H         1 ACP         0.1067
     45 HN61       -5.2619   -3.7766   -0.9586 H         1 ACP         0.4213
     46 HN62       -6.4834   -2.5990   -1.3590 H         1 ACP         0.4213
     47 H2         -4.8317    1.4071    0.1930 H         1 ACP         0.0365
@<TRIPOS>BOND
     1    1    2 2
     2    1    3 1
     3    1    4 1
     4    1    8 1
     5    3   32 1
     6    4   33 1
     7    5    6 2
     8    5    7 1
     9    5    8 1
    10    5   12 1
    11    8   34 1
    12    8   35 1
    13    9   10 2
    14    9   11 1
    15    9   12 1
    16    9   13 1
    17   13   14 1
    18   14   15 1
    19   14   36 1
    20   14   37 1
    21   15   16 1
    22   15   17 1
    23   15   38 1
    24   16   21 1
    25   17   18 1
    26   17   19 1
    27   17   39 1
    28   18   40 1
    29   19   20 1
    30   19   21 1
    31   19   41 1
    32   20   42 1
    33   21   22 1
    34   21   43 1
    35   22   23 ar
    36   22   31 ar
    37   23   24 ar
    38   23   44 1
    39   24   25 ar
    40   25   26 ar
    41   25   31 ar
    42   26   27 1
    43   26   28 ar
    44   27   45 1
    45   27   46 1
    46   28   29 ar
    47   29   30 ar
    48   29   47 1
    49   30   31 ar
@<TRIPOS>SUBSTRUCTURE
     1 ACP         1 GROUP 0 A     ****
@<TRIPOS>MOLECULE
[[5-(6-aminopurin-9-yl)-3,4-dihydroxy-tetrahydrofuran-2-yl]methoxy-oxido-phosphoryl]oxy-(phosphonomethyl)phosphinate
   47    49     1     0     0
SMALL
USER_CHARGES

@<TRIPOS>ATOM
      1 PG          0.6265    6.4572    0.0619 P.3       1 ACP         1.6478
      2 O1G         0.6858    5.3856   -0.9848 O.2       1 ACP        -0.9103
      3 O2G         1.4170    7.8203   -0.2948 O.3       1 ACP        -0.7989
      4 O3G         1.2141    6.0453    1.5092 O.3       1 ACP        -0.7989
      5 PB         -2.3703    5.9214    1.0926 P.3       1 ACP         1.4947
      6 O1B        -2.5903    4.8387    0.0616 O.co2     1 ACP        -0.8554
      7 O2B        -3.4929    6.8021    1.5904 O.co2     1 ACP        -0.8554
      8 C3B        -1.0427    7.0342    0.4444 C.3       1 ACP        -0.6550
      9 PA         -1.9154    4.0917    3.3841 P.3       1 ACP         1.5921
     10 O1A        -3.2739    4.3706    3.9902 O.co2     1 ACP        -0.8561
     11 O2A        -0.7157    3.8308    4.2687 O.co2     1 ACP        -0.8561
     12 O3A        -1.5461    5.3085    2.3591 O.3       1 ACP        -0.8166
     13 O5'        -2.0402    2.8619    2.3132 O.3       1 ACP        -0.5737
     14 C5'        -0.8811    2.4285    1.6206 C.3       1 ACP         0.2197
     15 C4'        -0.1994    1.3333    2.4288 C.3       1 ACP         0.0944
     16 O4'        -1.1285    0.2356    2.5840 O.3       1 ACP        -0.4017
     17 C3'         1.0324    0.7610    1.7344 C.3       1 ACP         0.0859
     18 O3'         1.9175    0.2377    2.7247 O.3       1 ACP        -0.5941
     19 C2'         0.4468   -0.3802    0.9263 C.3       1 ACP         0.0924
     20 O2'         1.3993   -1.3703    0.5961 O.3       1 ACP        -0.5928
     21 C1'        -0.6159   -0.9100    1.8769 C.3       1 ACP         0.3967
     22 N9         -1.7127   -1.6108    1.2130 N.pl3     1 ACP        -0.6763
     23 C8         -2.8641   -1.0399    0.7392 C.ar      1 ACP         0.5586
     24 N7         -3.6659   -1.9257    0.1858 N.2       1 ACP        -0.5795
     25 C5         -3.0053   -3.1223    0.3069 C.ar      1 ACP        -0.2116
     26 C6         -3.3321   -4.4178   -0.0813 C.ar      1 ACP         0.7185
     27 N6         -4.5476   -4.6866   -0.7335 N.pl3     1 ACP        -0.9442
     28 N1         -2.4608   -5.4225    0.1773 N.ar      1 ACP        -0.8040
     29 C2         -1.3053   -5.1020    0.8081 C.ar      1 ACP         0.6560
     30 N3         -0.8788   -3.8921    1.2315 N.ar      1 ACP        -0.7058
     31 C4         -1.7870   -2.9477    0.9438 C.ar      1 ACP         0.5729
     32 HOG2        2.3828    7.7797   -0.4611 H         1 ACP         0.4440
     33 HOG3        2.1531    5.7709    1.5802 H         1 ACP         0.4440
     34 H3B1       -0.9532    7.8436    1.1777 H         1 ACP         0.1084
     35 H3B2       -1.4458    7.4778   -0.4732 H         1 ACP         0.1084
     36 H5'1       -1.1771    2.0504    0.6370 H         1 ACP         0.0281
     37 H5'2       -0.2083    3.2816    1.4878 H         1 ACP         0.0281
     38 H4'         0.0403    1.7078    3.4343 H         1 ACP         0.1082
     39 H3'         1.5906    1.4859    1.1353 H         1 ACP         0.0650
     40 HO3'        2.6839   -0.1150    2.2479 H         1 ACP         0.4300
     41 H2'        -0.0017    0.0018    0.0005 H         1 ACP         0.0785
     42 HO2'        2.0953   -0.9375    0.0709 H         1 ACP         0.4275
     43 H1'        -0.1998   -1.6319    2.6178 H         1 ACP         0.1009
     44 H8         -3.0609    0.0200    0.8250 H         1 ACP         0.1067
     45 HN61       -5.2046   -3.9433   -0.8775 H         1 ACP         0.4213
     46 HN62       -4.7849   -5.6332   -0.9625 H         1 ACP         0.4213
     47 H2         -0.6318   -5.9307    0.9993 H         1 ACP         0.0365
@<TRIPOS>BOND
     1    1    2 2
     2    1    3 1
     3    1    4 1
     4    1    8 1
     5    3   32 1
     6    4   33 1
     7    5    6 2
     8    5    7 1
     9    5    8 1
    10    5   12 1
    11    8   34 1
    12    8   35 1
    13    9   10 2
    14    9   11 1
    15    9   12 1
    16    9   13 1
    17   13   14 1
    18   14   15 1
    19   14   36 1
    20   14   37 1
    21   15   16 1
    22   15   17 1
    23   15   38 1
    24   16   21 1
    25   17   18 1
    26   17   19 1
    27   17   39 1
    28   18   40 1
    29   19   20 1
    30   19   21 1
    31   19   41 1
    32   20   42 1
    33   21   22 1
    34   21   43 1
    35   22   23 ar
    36   22   31 ar
    37   23   24 ar
    38   23   44 1
    39   24   25 ar
    40   25   26 ar
    41   25   31 ar
    42   26   27 1
    43   26   28 ar
    44   27   45 1
    45   27   46 1
    46   28   29 ar
    47   29   30 ar
    48   29   47 1
    49   30   31 ar
@<TRIPOS>SUBSTRUCTURE
     1 ACP         1 GROUP 0 A     ****
@<TRIPOS>MOLECULE
[[5-(6-aminopurin-9-yl)-3,4-dihydroxy-tetrahydrofuran-2-yl]methoxy-oxido-phosphoryl]oxy-(phosphonomethyl)phosphinate
   47    49     1     0     0
SMALL
USER_CHARGES

@<TRIPOS>ATOM
      1 PG          6.8577    5.8341   -2.1713 P.3       1 ACP         1.6478
      2 O1G         7.8768    6.8838   -2.4986 O.2       1 ACP        -0.9103
      3 O2G         5.3528    6.3754   -1.9426 O.3       1 ACP        -0.7989
      4 O3G         7.1565    4.9696   -0.8398 O.3       1 ACP        -0.7989
      5 PB          5.4623    3.1638   -3.2902 P.3       1 ACP         1.4947
      6 O1B         5.5840    2.3319   -4.5458 O.co2     1 ACP        -0.8554
      7 O2B         4.1438    3.7400   -2.8284 O.co2     1 ACP        -0.8554
      8 C3B         6.6540    4.5696   -3.4461 C.3       1 ACP        -0.6550
      9 PA          5.8978    0.9307   -1.3850 P.3       1 ACP         1.5921
     10 O1A         6.7853    0.7713   -0.1696 O.co2     1 ACP        -0.8561
     11 O2A         5.9043   -0.1078   -2.4857 O.co2     1 ACP        -0.8561
     12 O3A         6.1915    2.3921   -2.0524 O.3       1 ACP        -0.8166
     13 O5'         4.3514    1.1573   -0.9028 O.3       1 ACP        -0.5737
     14 C5'         4.0922    1.9801    0.2227 C.3       1 ACP         0.2197
     15 C4'         2.5944    2.0310    0.4653 C.3       1 ACP         0.0944
     16 O4'         1.9327    2.5740   -0.6889 O.3       1 ACP        -0.4017
     17 C3'         1.9685    0.6634    0.6767 C.3       1 ACP         0.0859
     18 O3'         2.1425    0.1975    1.9977 O.3       1 ACP        -0.5941
     19 C2'         0.5176    0.9128    0.3099 C.3       1 ACP         0.0924
     20 O2'        -0.2103    1.4454    1.4152 O.3       1 ACP        -0.5928
     21 C1'         0.6219    1.9765   -0.7844 C.3       1 ACP         0.3967
     22 N9          0.4237    1.4496   -2.1357 N.pl3     1 ACP        -0.6763
     23 C8          1.4026    0.9717   -2.9660 C.ar      1 ACP         0.5586
     24 N7          0.9183    0.5619   -4.1197 N.2       1 ACP        -0.5795
     25 C5         -0.4330    0.7845   -4.0331 C.ar      1 ACP        -0.2116
     26 C6         -1.4794    0.5615   -4.9225 C.ar      1 ACP         0.7185
     27 N6         -1.2378    0.0044   -6.1899 N.pl3     1 ACP        -0.9442
     28 N1         -2.7406    0.8885   -4.5512 N.ar      1 ACP        -0.8040
     29 C2         -2.9113    1.4216   -3.3172 C.ar      1 ACP         0.6560
     30 N3         -1.9824    1.6843   -2.3721 N.ar      1 ACP        -0.7058
     31 C4         -0.7613    1.3370   -2.8054 C.ar      1 ACP         0.5729
     32 HOG2        5.1849    7.0238   -1.2260 H         1 ACP         0.4440
     33 HOG3        7.2263    5.4329    0.0219 H         1 ACP         0.4440
     34 H3B1        6.3869    5.0797   -4.3785 H         1 ACP         0.1084
     35 H3B2        7.6375    4.1121   -3.6027 H         1 ACP         0.1084
     36 H5'1        4.6070    1.5616    1.0933 H         1 ACP         0.0281
     37 H5'2        4.4825    2.9835    0.0251 H         1 ACP         0.0281
     38 H4'         2.3751    2.7029    1.3156 H         1 ACP         0.1082
     39 H3'         2.4336   -0.1217   -0.0015 H         1 ACP         0.0650
     40 HO3'        1.7160   -0.6716    2.0397 H         1 ACP         0.4300
     41 H2'         0.0316    0.0155   -0.0339 H         1 ACP         0.0785
     42 HO2'       -0.1608    0.7921    2.1351 H         1 ACP         0.4275
     43 H1'        -0.1474    2.7798   -0.6651 H         1 ACP         0.1009
     44 H8          2.4442    0.9470   -2.6763 H         1 ACP         0.1067
     45 HN61       -0.2955   -0.1901   -6.4713 H         1 ACP         0.4213
     46 HN62       -1.9987   -0.1045   -6.8334 H         1 ACP         0.4213
     47 H2         -3.9335    1.6716   -3.0534 H         1 ACP         0.0365
@<TRIPOS>BOND
     1    1    2 2
     2    1    3 1
     3    1    4 1
     4    1    8 1
     5    3   32 1
     6    4   33 1
     7    5    6 2
     8    5    7 1
     9    5    8 1
    10    5   12 1
    11    8   34 1
    12    8   35 1
    13    9   10 2
    14    9   11 1
    15    9   12 1
    16    9   13 1
    17   13   14 1
    18   14   15 1
    19   14   36 1
    20   14   37 1
    21   15   16 1
    22   15   17 1
    23   15   38 1
    24   16   21 1
    25   17   18 1
    26   17   19 1
    27   17   39 1
    28   18   40 1
    29   19   20 1
    30   19   21 1
    31   19   41 1
    32   20   42 1
    33   21   22 1
    34   21   43 1
    35   22   23 ar
    36   22   31 ar
    37   23   24 ar
    38   23   44 1
    39   24   25 ar
    40   25   26 ar
    41   25   31 ar
    42   26   27 1
    43   26   28 ar
    44   27   45 1
    45   27   46 1
    46   28   29 ar
    47   29   30 ar
    48   29   47 1
    49   30   31 ar
@<TRIPOS>SUBSTRUCTURE
     1 ACP         1 GROUP 0 A     ****
@<TRIPOS>MOLECULE
[[5-(6-aminopurin-9-yl)-3,4-dihydroxy-tetrahydrofuran-2-yl]methoxy-oxido-phosphoryl]oxy-(phosphonomethyl)phosphinate
   47    49     1     0     0
SMALL
USER_CHARGES

@<TRIPOS>ATOM
      1 PG         -3.3965    7.0623    2.4211 P.3       1 ACP         1.6478
      2 O1G        -2.6294    8.3448    2.5400 O.2       1 ACP        -0.9103
      3 O2G        -4.8611    7.0639    3.1031 O.3       1 ACP        -0.7989
      4 O3G        -2.6803    5.7644    3.0632 O.3       1 ACP        -0.7989
      5 PB         -2.3949    6.2027   -0.5094 P.3       1 ACP         1.4947
      6 O1B        -1.5919    7.4731   -0.6679 O.co2     1 ACP        -0.8554
      7 O2B        -3.0352    5.5007   -1.6845 O.co2     1 ACP        -0.8554
      8 C3B        -3.7315    6.5488    0.7212 C.3       1 ACP        -0.6550
      9 PA         -0.0885    4.4445    0.1193 P.3       1 ACP         1.5921
     10 O1A         0.9671    5.5276    0.1742 O.co2     1 ACP        -0.8561
     11 O2A        -0.1962    3.5335   -1.0842 O.co2     1 ACP        -0.8561
     12 O3A        -1.5478    5.1301    0.3800 O.3       1 ACP        -0.8166
     13 O5'         0.0182    3.5132    1.4596 O.3       1 ACP        -0.5737
     14 C5'        -0.8811    2.4285    1.6206 C.3       1 ACP         0.2197
     15 C4'        -0.1994    1.3333    2.4288 C.3       1 ACP         0.0944
     16 O4'        -1.1285    0.2356    2.5840 O.3       1 ACP        -0.4017
     17 C3'         1.0324    0.7610    1.7344 C.3       1 ACP         0.0859
     18 O3'         1.9175    0.2377    2.7247 O.3       1 ACP        -0.5941
     19 C2'         0.4468   -0.3802    0.9263 C.3       1 ACP         0.0924
     20 O2'         1.3993   -1.3703    0.5961 O.3       1 ACP        -0.5928
     21 C1'        -0.6159   -0.9100    1.8769 C.3       1 ACP         0.3967
     22 N9         -1.7127   -1.6108    1.2130 N.pl3     1 ACP        -0.6763
     23 C8         -2.5476   -1.0844    0.2632 C.ar      1 ACP         0.5586
     24 N7         -3.4391   -1.9591   -0.1536 N.2       1 ACP        -0.5795
     25 C5         -3.1701   -3.1016    0.5574 C.ar      1 ACP        -0.2116
     26 C6         -3.7593   -4.3620    0.5656 C.ar      1 ACP         0.7185
     27 N6         -4.8512   -4.6493   -0.2712 N.pl3     1 ACP        -0.9442
     28 N1         -3.2659   -5.3144    1.3932 N.ar      1 ACP        -0.8040
     29 C2         -2.2122   -4.9785    2.1759 C.ar      1 ACP         0.6560
     30 N3         -1.5595   -3.7985    2.2572 N.ar      1 ACP        -0.7058
     31 C4         -2.0986   -2.9054    1.4140 C.ar      1 ACP         0.5729
     32 HOG2       -4.9365    7.2340    4.0661 H         1 ACP         0.4440
     33 HOG3       -2.4685    5.7637    4.0209 H         1 ACP         0.4440
     34 H3B1       -4.3354    5.6354    0.7643 H         1 ACP         0.1084
     35 H3B2       -4.3594    7.3258    0.2703 H         1 ACP         0.1084
     36 H5'1       -1.7769    2.7852    2.1386 H         1 ACP         0.0281
     37 H5'2       -1.1652    2.0544    0.6320 H         1 ACP         0.0281
     38 H4'         0.0403    1.7078    3.4343 H         1 ACP         0.1082
     39 H3'         1.5906    1.4859    1.1353 H         1 ACP         0.0650
     40 HO3'        2.6839   -0.1150    2.2479 H         1 ACP         0.4300
     41 H2'        -0.0017    0.0018    0.0005 H         1 ACP         0.0785
     42 HO2'        2.0953   -0.9375    0.0709 H         1 ACP         0.4275
     43 H1'        -0.1998   -1.6319    2.6178 H         1 ACP         0.1009
     44 H8         -2.4576   -0.0639   -0.0831 H         1 ACP         0.1067
     45 HN61       -5.2371   -3.9234   -0.8448 H         1 ACP         0.4213
     46 HN62       -5.2909   -5.5485   -0.2160 H         1 ACP         0.4213
     47 H2         -1.8433   -5.7650    2.8259 H         1 ACP         0.0365
@<TRIPOS>BOND
     1    1    2 2
     2    1    3 1
     3    1    4 1
     4    1    8 1
     5    3   32 1
     6    4   33 1
     7    5    6 2
     8    5    7 1
     9    5    8 1
    10    5   12 1
    11    8   34 1
    12    8   35 1
    13    9   10 2
    14    9   11 1
    15    9   12 1
    16    9   13 1
    17   13   14 1
    18   14   15 1
    19   14   36 1
    20   14   37 1
    21   15   16 1
    22   15   17 1
    23   15   38 1
    24   16   21 1
    25   17   18 1
    26   17   19 1
    27   17   39 1
    28   18   40 1
    29   19   20 1
    30   19   21 1
    31   19   41 1
    32   20   42 1
    33   21   22 1
    34   21   43 1
    35   22   23 ar
    36   22   31 ar
    37   23   24 ar
    38   23   44 1
    39   24   25 ar
    40   25   26 ar
    41   25   31 ar
    42   26   27 1
    43   26   28 ar
    44   27   45 1
    45   27   46 1
    46   28   29 ar
    47   29   30 ar
    48   29   47 1
    49   30   31 ar
@<TRIPOS>SUBSTRUCTURE
     1 ACP         1 GROUP 0 A     ****
@<TRIPOS>MOLECULE
[[5-(6-aminopurin-9-yl)-3,4-dihydroxy-tetrahydrofuran-2-yl]methoxy-oxido-phosphoryl]oxy-(phosphonomethyl)phosphinate
   47    49     1     0     0
SMALL
USER_CHARGES

@<TRIPOS>ATOM
      1 PG          0.8012    5.8341   -0.9298 P.3       1 ACP         1.6478
      2 O1G         1.7090    5.2686    0.1207 O.2       1 ACP        -0.9103
      3 O2G         0.0946    4.7477   -1.8945 O.3       1 ACP        -0.7989
      4 O3G         1.4943    6.8649   -1.9626 O.3       1 ACP        -0.7989
      5 PB         -1.8696    6.0505    0.8451 P.3       1 ACP         1.4947
      6 O1B        -2.5230    4.9093    0.1005 O.co2     1 ACP        -0.8554
      7 O2B        -2.6657    7.1959    1.4263 O.co2     1 ACP        -0.8554
      8 C3B        -0.5944    6.7797   -0.2787 C.3       1 ACP        -0.6550
      9 PA         -1.1366    4.4807    3.2544 P.3       1 ACP         1.5921
     10 O1A        -2.2266    5.1034    4.0998 O.co2     1 ACP        -0.8561
     11 O2A         0.1933    4.1013    3.8686 O.co2     1 ACP        -0.8561
     12 O3A        -0.8547    5.4545    1.9738 O.3       1 ACP        -0.8166
     13 O5'        -1.7337    3.1724    2.4754 O.3       1 ACP        -0.5737
     14 C5'        -0.8811    2.4285    1.6206 C.3       1 ACP         0.2197
     15 C4'        -0.1994    1.3333    2.4288 C.3       1 ACP         0.0944
     16 O4'        -1.1285    0.2356    2.5840 O.3       1 ACP        -0.4017
     17 C3'         1.0324    0.7610    1.7344 C.3       1 ACP         0.0859
     18 O3'         1.9175    0.2377    2.7247 O.3       1 ACP        -0.5941
     19 C2'         0.4468   -0.3802    0.9263 C.3       1 ACP         0.0924
     20 O2'         1.3993   -1.3703    0.5961 O.3       1 ACP        -0.5928
     21 C1'        -0.6159   -0.9100    1.8769 C.3       1 ACP         0.3967
     22 N9         -1.7127   -1.6108    1.2130 N.pl3     1 ACP        -0.6763
     23 C8         -2.8641   -1.0399    0.7392 C.ar      1 ACP         0.5586
     24 N7         -3.6659   -1.9257    0.1858 N.2       1 ACP        -0.5795
     25 C5         -3.0053   -3.1223    0.3069 C.ar      1 ACP        -0.2116
     26 C6         -3.3321   -4.4178   -0.0813 C.ar      1 ACP         0.7185
     27 N6         -4.5476   -4.6866   -0.7335 N.pl3     1 ACP        -0.9442
     28 N1         -2.4608   -5.4225    0.1773 N.ar      1 ACP        -0.8040
     29 C2         -1.3053   -5.1020    0.8081 C.ar      1 ACP         0.6560
     30 N3         -0.8788   -3.8921    1.2315 N.ar      1 ACP        -0.7058
     31 C4         -1.7870   -2.9477    0.9438 C.ar      1 ACP         0.5729
     32 HOG2        0.6585    4.1572   -2.4380 H         1 ACP         0.4440
     33 HOG3        2.2425    6.5531   -2.5149 H         1 ACP         0.4440
     34 H3B1       -0.1870    7.6429    0.2596 H         1 ACP         0.1084
     35 H3B2       -1.1450    7.1720   -1.1413 H         1 ACP         0.1084
     36 H5'1       -1.4802    1.9929    0.8148 H         1 ACP         0.0281
     37 H5'2       -0.1370    3.1043    1.1873 H         1 ACP         0.0281
     38 H4'         0.0403    1.7078    3.4343 H         1 ACP         0.1082
     39 H3'         1.5906    1.4859    1.1353 H         1 ACP         0.0650
     40 HO3'        2.6839   -0.1150    2.2479 H         1 ACP         0.4300
     41 H2'        -0.0017    0.0018    0.0005 H         1 ACP         0.0785
     42 HO2'        2.0953   -0.9375    0.0709 H         1 ACP         0.4275
     43 H1'        -0.1998   -1.6319    2.6178 H         1 ACP         0.1009
     44 H8         -3.0609    0.0200    0.8250 H         1 ACP         0.1067
     45 HN61       -5.2046   -3.9433   -0.8775 H         1 ACP         0.4213
     46 HN62       -4.7849   -5.6332   -0.9625 H         1 ACP         0.4213
     47 H2         -0.6318   -5.9307    0.9993 H         1 ACP         0.0365
@<TRIPOS>BOND
     1    1    2 2
     2    1    3 1
     3    1    4 1
     4    1    8 1
     5    3   32 1
     6    4   33 1
     7    5    6 2
     8    5    7 1
     9    5    8 1
    10    5   12 1
    11    8   34 1
    12    8   35 1
    13    9   10 2
    14    9   11 1
    15    9   12 1
    16    9   13 1
    17   13   14 1
    18   14   15 1
    19   14   36 1
    20   14   37 1
    21   15   16 1
    22   15   17 1
    23   15   38 1
    24   16   21 1
    25   17   18 1
    26   17   19 1
    27   17   39 1
    28   18   40 1
    29   19   20 1
    30   19   21 1
    31   19   41 1
    32   20   42 1
    33   21   22 1
    34   21   43 1
    35   22   23 ar
    36   22   31 ar
    37   23   24 ar
    38   23   44 1
    39   24   25 ar
    40   25   26 ar
    41   25   31 ar
    42   26   27 1
    43   26   28 ar
    44   27   45 1
    45   27   46 1
    46   28   29 ar
    47   29   30 ar
    48   29   47 1
    49   30   31 ar
@<TRIPOS>SUBSTRUCTURE
     1 ACP         1 GROUP 0 A     ****
@<TRIPOS>MOLECULE
[[5-(6-aminopurin-9-yl)-3,4-dihydroxy-tetrahydrofuran-2-yl]methoxy-oxido-phosphoryl]oxy-(phosphonomethyl)phosphinate
   47    49     1     0     0
SMALL
USER_CHARGES

@<TRIPOS>ATOM
      1 PG          5.9206   -0.1710   -3.3776 P.3       1 ACP         1.6478
      2 O1G         4.4948   -0.5699   -3.1424 O.2       1 ACP        -0.9103
      3 O2G         6.7366   -1.0953   -4.4217 O.3       1 ACP        -0.7989
      4 O3G         6.8623   -0.1591   -2.0651 O.3       1 ACP        -0.7989
      5 PB          5.5423    3.0141   -3.1723 P.3       1 ACP         1.4947
      6 O1B         4.0477    2.8805   -2.9942 O.co2     1 ACP        -0.8554
      7 O2B         6.1699    4.2024   -3.8634 O.co2     1 ACP        -0.8554
      8 C3B         6.1282    1.4941   -4.0483 C.3       1 ACP        -0.6550
      9 PA          6.1592    3.5244   -0.3148 P.3       1 ACP         1.5921
     10 O1A         6.4205    4.9975   -0.5432 O.co2     1 ACP        -0.8561
     11 O2A         6.9491    2.7529    0.7199 O.co2     1 ACP        -0.8561
     12 O3A         6.2869    2.7480   -1.7461 O.3       1 ACP        -0.8166
     13 O5'         4.5669    3.2941   -0.0211 O.3       1 ACP        -0.5737
     14 C5'         4.0922    1.9801    0.2227 C.3       1 ACP         0.2197
     15 C4'         2.5944    2.0310    0.4653 C.3       1 ACP         0.0944
     16 O4'         1.9327    2.5740   -0.6889 O.3       1 ACP        -0.4017
     17 C3'         1.9685    0.6634    0.6767 C.3       1 ACP         0.0859
     18 O3'         2.1425    0.1975    1.9977 O.3       1 ACP        -0.5941
     19 C2'         0.5176    0.9128    0.3099 C.3       1 ACP         0.0924
     20 O2'        -0.2103    1.4454    1.4152 O.3       1 ACP        -0.5928
     21 C1'         0.6219    1.9765   -0.7844 C.3       1 ACP         0.3967
     22 N9          0.4237    1.4496   -2.1357 N.pl3     1 ACP        -0.6763
     23 C8          1.1856    0.4888   -2.7458 C.ar      1 ACP         0.5586
     24 N7          0.7615    0.2176   -3.9625 N.2       1 ACP        -0.5795
     25 C5         -0.3220    1.0389   -4.1486 C.ar      1 ACP        -0.2116
     26 C6         -1.1900    1.2182   -5.2210 C.ar      1 ACP         0.7185
     27 N6         -1.0341    0.4739   -6.4028 N.pl3     1 ACP        -0.9442
     28 N1         -2.1929    2.1227   -5.1127 N.ar      1 ACP        -0.8040
     29 C2         -2.2930    2.8097   -3.9492 C.ar      1 ACP         0.6560
     30 N3         -1.5176    2.7252   -2.8462 N.ar      1 ACP        -0.7058
     31 C4         -0.5489    1.8142   -3.0226 C.ar      1 ACP         0.5729
     32 HOG2        6.8431   -2.0508   -4.2277 H         1 ACP         0.4440
     33 HOG3        6.9852   -0.9914   -1.5608 H         1 ACP         0.4440
     34 H3B1        7.1988    1.6495   -4.2231 H         1 ACP         0.1084
     35 H3B2        5.6393    1.5070   -5.0291 H         1 ACP         0.1084
     36 H5'1        4.3181    1.3551   -0.6470 H         1 ACP         0.0281
     37 H5'2        4.6085    1.5740    1.0982 H         1 ACP         0.0281
     38 H4'         2.3751    2.7029    1.3156 H         1 ACP         0.1082
     39 H3'         2.4336   -0.1217   -0.0015 H         1 ACP         0.0650
     40 HO3'        1.7160   -0.6716    2.0397 H         1 ACP         0.4300
     41 H2'         0.0316    0.0155   -0.0339 H         1 ACP         0.0785
     42 HO2'       -0.1608    0.7921    2.1351 H         1 ACP         0.4275
     43 H1'        -0.1474    2.7798   -0.6651 H         1 ACP         0.1009
     44 H8          2.0314    0.0256   -2.2564 H         1 ACP         0.1067
     45 HN61       -0.2609   -0.1582   -6.4888 H         1 ACP         0.4213
     46 HN62       -1.6409    0.6517   -7.1807 H         1 ACP         0.4213
     47 H2         -3.1067    3.5253   -3.8975 H         1 ACP         0.0365
@<TRIPOS>BOND
     1    1    2 2
     2    1    3 1
     3    1    4 1
     4    1    8 1
     5    3   32 1
     6    4   33 1
     7    5    6 2
     8    5    7 1
     9    5    8 1
    10    5   12 1
    11    8   34 1
    12    8   35 1
    13    9   10 2
    14    9   11 1
    15    9   12 1
    16    9   13 1
    17   13   14 1
    18   14   15 1
    19   14   36 1
    20   14   37 1
    21   15   16 1
    22   15   17 1
    23   15   38 1
    24   16   21 1
    25   17   18 1
    26   17   19 1
    27   17   39 1
    28   18   40 1
    29   19   20 1
    30   19   21 1
    31   19   41 1
    32   20   42 1
    33   21   22 1
    34   21   43 1
    35   22   23 ar
    36   22   31 ar
    37   23   24 ar
    38   23   44 1
    39   24   25 ar
    40   25   26 ar
    41   25   31 ar
    42   26   27 1
    43   26   28 ar
    44   27   45 1
    45   27   46 1
    46   28   29 ar
    47   29   30 ar
    48   29   47 1
    49   30   31 ar
@<TRIPOS>SUBSTRUCTURE
     1 ACP         1 GROUP 0 A     ****
@<TRIPOS>MOLECULE
[[5-(6-aminopurin-9-yl)-3,4-dihydroxy-tetrahydrofuran-2-yl]methoxy-oxido-phosphoryl]oxy-(phosphonomethyl)phosphinate
   47    49     1     0     0
SMALL
USER_CHARGES

@<TRIPOS>ATOM
      1 PG          2.5907    4.5010   -2.5172 P.3       1 ACP         1.6478
      2 O1G         3.2840    5.8290   -2.5727 O.2       1 ACP        -0.9103
      3 O2G         2.6781    3.7312   -1.0995 O.3       1 ACP        -0.7989
      4 O3G         3.1136    3.4015   -3.5789 O.3       1 ACP        -0.7989
      5 PB         -0.3599    5.5573   -1.8042 P.3       1 ACP         1.4947
      6 O1B        -1.7409    5.3653   -2.3870 O.co2     1 ACP        -0.8554
      7 O2B         0.2504    6.9258   -1.6083 O.co2     1 ACP        -0.8554
      8 C3B         0.8142    4.5733   -2.8406 C.3       1 ACP        -0.6550
      9 PA         -0.7382    5.0055    1.0868 P.3       1 ACP         1.5921
     10 O1A        -2.2516    5.0177    1.0865 O.co2     1 ACP        -0.8561
     11 O2A         0.0419    6.1870    1.6208 O.co2     1 ACP        -0.8561
     12 O3A        -0.2227    4.6896   -0.4304 O.3       1 ACP        -0.8166
     13 O5'        -0.2059    3.6558    1.8419 O.3       1 ACP        -0.5737
     14 C5'        -0.8811    2.4285    1.6206 C.3       1 ACP         0.2197
     15 C4'        -0.1994    1.3333    2.4288 C.3       1 ACP         0.0944
     16 O4'        -1.1285    0.2356    2.5840 O.3       1 ACP        -0.4017
     17 C3'         1.0324    0.7610    1.7344 C.3       1 ACP         0.0859
     18 O3'         1.9175    0.2377    2.7247 O.3       1 ACP        -0.5941
     19 C2'         0.4468   -0.3802    0.9263 C.3       1 ACP         0.0924
     20 O2'         1.3993   -1.3703    0.5961 O.3       1 ACP        -0.5928
     21 C1'        -0.6159   -0.9100    1.8769 C.3       1 ACP         0.3967
     22 N9         -1.7127   -1.6108    1.2130 N.pl3     1 ACP        -0.6763
     23 C8         -2.5476   -1.0844    0.2632 C.ar      1 ACP         0.5586
     24 N7         -3.4391   -1.9591   -0.1536 N.2       1 ACP        -0.5795
     25 C5         -3.1701   -3.1016    0.5574 C.ar      1 ACP        -0.2116
     26 C6         -3.7593   -4.3620    0.5656 C.ar      1 ACP         0.7185
     27 N6         -4.8512   -4.6493   -0.2712 N.pl3     1 ACP        -0.9442
     28 N1         -3.2659   -5.3144    1.3932 N.ar      1 ACP        -0.8040
     29 C2         -2.2122   -4.9785    2.1759 C.ar      1 ACP         0.6560
     30 N3         -1.5595   -3.7985    2.2572 N.ar      1 ACP        -0.7058
     31 C4         -2.0986   -2.9054    1.4140 C.ar      1 ACP         0.5729
     32 HOG2        3.5598    3.4929   -0.7419 H         1 ACP         0.4440
     33 HOG3        4.0526    3.1200   -3.5478 H         1 ACP         0.4440
     34 H3B1        0.6789    4.9378   -3.8651 H         1 ACP         0.1084
     35 H3B2        0.4427    3.5425   -2.8166 H         1 ACP         0.1084
     36 H5'1       -1.9255    2.5383    1.9294 H         1 ACP         0.0281
     37 H5'2       -0.8472    2.1934    0.5521 H         1 ACP         0.0281
     38 H4'         0.0403    1.7078    3.4343 H         1 ACP         0.1082
     39 H3'         1.5906    1.4859    1.1353 H         1 ACP         0.0650
     40 HO3'        2.6839   -0.1150    2.2479 H         1 ACP         0.4300
     41 H2'        -0.0017    0.0018    0.0005 H         1 ACP         0.0785
     42 HO2'        2.0953   -0.9375    0.0709 H         1 ACP         0.4275
     43 H1'        -0.1998   -1.6319    2.6178 H         1 ACP         0.1009
     44 H8         -2.4576   -0.0639   -0.0831 H         1 ACP         0.1067
     45 HN61       -5.2371   -3.9234   -0.8448 H         1 ACP         0.4213
     46 HN62       -5.2909   -5.5485   -0.2160 H         1 ACP         0.4213
     47 H2         -1.8433   -5.7650    2.8259 H         1 ACP         0.0365
@<TRIPOS>BOND
     1    1    2 2
     2    1    3 1
     3    1    4 1
     4    1    8 1
     5    3   32 1
     6    4   33 1
     7    5    6 2
     8    5    7 1
     9    5    8 1
    10    5   12 1
    11    8   34 1
    12    8   35 1
    13    9   10 2
    14    9   11 1
    15    9   12 1
    16    9   13 1
    17   13   14 1
    18   14   15 1
    19   14   36 1
    20   14   37 1
    21   15   16 1
    22   15   17 1
    23   15   38 1
    24   16   21 1
    25   17   18 1
    26   17   19 1
    27   17   39 1
    28   18   40 1
    29   19   20 1
    30   19   21 1
    31   19   41 1
    32   20   42 1
    33   21   22 1
    34   21   43 1
    35   22   23 ar
    36   22   31 ar
    37   23   24 ar
    38   23   44 1
    39   24   25 ar
    40   25   26 ar
    41   25   31 ar
    42   26   27 1
    43   26   28 ar
    44   27   45 1
    45   27   46 1
    46   28   29 ar
    47   29   30 ar
    48   29   47 1
    49   30   31 ar
@<TRIPOS>SUBSTRUCTURE
     1 ACP         1 GROUP 0 A     ****
@<TRIPOS>MOLECULE
[[5-(6-aminopurin-9-yl)-3,4-dihydroxy-tetrahydrofuran-2-yl]methoxy-oxido-phosphoryl]oxy-(phosphonomethyl)phosphinate
   47    49     1     0     0
SMALL
USER_CHARGES

@<TRIPOS>ATOM
      1 PG         -0.4769    0.7518    6.8997 P.3       1 ACP         1.6478
      2 O1G        -1.2255    0.1728    5.7371 O.2       1 ACP        -0.9103
      3 O2G         0.7472   -0.1456    7.4534 O.3       1 ACP        -0.7989
      4 O3G        -1.3626    1.0409    8.2194 O.3       1 ACP        -0.7989
      5 PB         -0.6592    3.8493    6.0617 P.3       1 ACP         1.4947
      6 O1B         0.3333    4.9738    5.8776 O.co2     1 ACP        -0.8554
      7 O2B        -1.8432    3.9622    6.9938 O.co2     1 ACP        -0.8554
      8 C3B         0.2986    2.3496    6.5661 C.3       1 ACP        -0.6550
      9 PA         -1.9154    4.0917    3.3841 P.3       1 ACP         1.5921
     10 O1A        -0.9825    5.1474    2.8311 O.co2     1 ACP        -0.8561
     11 O2A        -3.3079    4.4603    3.8480 O.co2     1 ACP        -0.8561
     12 O3A        -1.1541    3.3150    4.6026 O.3       1 ACP        -0.8166
     13 O5'        -2.0402    2.8619    2.3132 O.3       1 ACP        -0.5737
     14 C5'        -0.8811    2.4285    1.6206 C.3       1 ACP         0.2197
     15 C4'        -0.1994    1.3333    2.4288 C.3       1 ACP         0.0944
     16 O4'        -1.1285    0.2356    2.5840 O.3       1 ACP        -0.4017
     17 C3'         1.0324    0.7610    1.7344 C.3       1 ACP         0.0859
     18 O3'         1.9175    0.2377    2.7247 O.3       1 ACP        -0.5941
     19 C2'         0.4468   -0.3802    0.9263 C.3       1 ACP         0.0924
     20 O2'         1.3993   -1.3703    0.5961 O.3       1 ACP        -0.5928
     21 C1'        -0.6159   -0.9100    1.8769 C.3       1 ACP         0.3967
     22 N9         -1.7127   -1.6108    1.2130 N.pl3     1 ACP        -0.6763
     23 C8         -2.8641   -1.0399    0.7392 C.ar      1 ACP         0.5586
     24 N7         -3.6659   -1.9257    0.1858 N.2       1 ACP        -0.5795
     25 C5         -3.0053   -3.1223    0.3069 C.ar      1 ACP        -0.2116
     26 C6         -3.3321   -4.4178   -0.0813 C.ar      1 ACP         0.7185
     27 N6         -4.5476   -4.6866   -0.7335 N.pl3     1 ACP        -0.9442
     28 N1         -2.4608   -5.4225    0.1773 N.ar      1 ACP        -0.8040
     29 C2         -1.3053   -5.1020    0.8081 C.ar      1 ACP         0.6560
     30 N3         -0.8788   -3.8921    1.2315 N.ar      1 ACP        -0.7058
     31 C4         -1.7870   -2.9477    0.9438 C.ar      1 ACP         0.5729
     32 HOG2        0.5610   -1.0491    7.7867 H         1 ACP         0.4440
     33 HOG3       -1.8266    0.2937    8.6533 H         1 ACP         0.4440
     34 H3B1        0.8524    2.6429    7.4651 H         1 ACP         0.1084
     35 H3B2        1.0384    2.1868    5.7741 H         1 ACP         0.1084
     36 H5'1       -1.1771    2.0504    0.6370 H         1 ACP         0.0281
     37 H5'2       -0.2083    3.2816    1.4878 H         1 ACP         0.0281
     38 H4'         0.0403    1.7078    3.4343 H         1 ACP         0.1082
     39 H3'         1.5906    1.4859    1.1353 H         1 ACP         0.0650
     40 HO3'        2.6839   -0.1150    2.2479 H         1 ACP         0.4300
     41 H2'        -0.0017    0.0018    0.0005 H         1 ACP         0.0785
     42 HO2'        2.0953   -0.9375    0.0709 H         1 ACP         0.4275
     43 H1'        -0.1998   -1.6319    2.6178 H         1 ACP         0.1009
     44 H8         -3.0609    0.0200    0.8250 H         1 ACP         0.1067
     45 HN61       -5.2046   -3.9433   -0.8775 H         1 ACP         0.4213
     46 HN62       -4.7849   -5.6332   -0.9625 H         1 ACP         0.4213
     47 H2         -0.6318   -5.9307    0.9993 H         1 ACP         0.0365
@<TRIPOS>BOND
     1    1    2 2
     2    1    3 1
     3    1    4 1
     4    1    8 1
     5    3   32 1
     6    4   33 1
     7    5    6 2
     8    5    7 1
     9    5    8 1
    10    5   12 1
    11    8   34 1
    12    8   35 1
    13    9   10 2
    14    9   11 1
    15    9   12 1
    16    9   13 1
    17   13   14 1
    18   14   15 1
    19   14   36 1
    20   14   37 1
    21   15   16 1
    22   15   17 1
    23   15   38 1
    24   16   21 1
    25   17   18 1
    26   17   19 1
    27   17   39 1
    28   18   40 1
    29   19   20 1
    30   19   21 1
    31   19   41 1
    32   20   42 1
    33   21   22 1
    34   21   43 1
    35   22   23 ar
    36   22   31 ar
    37   23   24 ar
    38   23   44 1
    39   24   25 ar
    40   25   26 ar
    41   25   31 ar
    42   26   27 1
    43   26   28 ar
    44   27   45 1
    45   27   46 1
    46   28   29 ar
    47   29   30 ar
    48   29   47 1
    49   30   31 ar
@<TRIPOS>SUBSTRUCTURE
     1 ACP         1 GROUP 0 A     ****
@<TRIPOS>MOLECULE
[[5-(6-aminopurin-9-yl)-3,4-dihydroxy-tetrahydrofuran-2-yl]methoxy-oxido-phosphoryl]oxy-(phosphonomethyl)phosphinate
   47    49     1     0     0
SMALL
USER_CHARGES

@<TRIPOS>ATOM
      1 PG          0.3194   -2.4198   -4.8216 P.3       1 ACP         1.6478
      2 O1G         0.7698   -1.9037   -3.4882 O.2       1 ACP        -0.9103
      3 O2G        -0.6221   -3.7320   -4.7760 O.3       1 ACP        -0.7989
      4 O3G         1.5029   -2.8372   -5.8388 O.3       1 ACP        -0.7989
      5 PB         -0.0097    0.4065   -6.3162 P.3       1 ACP         1.4947
      6 O1B        -1.1103    1.0900   -7.0940 O.co2     1 ACP        -0.8554
      7 O2B         1.3692    0.1854   -6.8936 O.co2     1 ACP        -0.8554
      8 C3B        -0.6562   -1.2432   -5.7857 C.3       1 ACP        -0.6550
      9 PA          0.4400    2.6183   -4.3897 P.3       1 ACP         1.5921
     10 O1A        -0.6984    3.5042   -4.8479 O.co2     1 ACP        -0.8561
     11 O2A         1.8678    2.9357   -4.7776 O.co2     1 ACP        -0.8561
     12 O3A         0.1128    1.0820   -4.8371 O.3       1 ACP        -0.8166
     13 O5'         0.3757    2.4482   -2.7643 O.3       1 ACP        -0.5737
     14 C5'        -0.7794    1.8744   -2.1748 C.3       1 ACP         0.2197
     15 C4'        -0.9699    2.4597   -0.7819 C.3       1 ACP         0.0944
     16 O4'        -2.1475    1.8640   -0.2014 O.3       1 ACP        -0.4017
     17 C3'         0.1697    2.1347    0.1695 C.3       1 ACP         0.0859
     18 O3'         0.1809    3.0982    1.2223 O.3       1 ACP        -0.5941
     19 C2'        -0.2543    0.7880    0.7187 C.3       1 ACP         0.0924
     20 O2'         0.3606    0.4944    1.9582 O.3       1 ACP        -0.5928
     21 C1'        -1.7682    0.9516    0.8548 C.3       1 ACP         0.3967
     22 N9         -2.5926   -0.2553    0.7436 N.pl3     1 ACP        -0.6763
     23 C8         -3.1120   -0.7726   -0.4135 C.ar      1 ACP         0.5586
     24 N7         -3.8089   -1.8688   -0.1980 N.2       1 ACP        -0.5795
     25 C5         -3.7380   -2.0700    1.1576 C.ar      1 ACP        -0.2116
     26 C6         -4.2662   -3.0526    1.9890 C.ar      1 ACP         0.7185
     27 N6         -5.0420   -4.0987    1.4609 N.pl3     1 ACP        -0.9442
     28 N1         -4.0226   -2.9899    3.3202 N.ar      1 ACP        -0.8040
     29 C2         -3.2679   -1.9585    3.7704 C.ar      1 ACP         0.6560
     30 N3         -2.7045   -0.9514    3.0680 N.ar      1 ACP        -0.7058
     31 C4         -2.9852   -1.0761    1.7622 C.ar      1 ACP         0.5729
     32 HOG2       -0.2726   -4.5535   -4.3699 H         1 ACP         0.4440
     33 HOG3        2.1323   -3.5408   -5.5725 H         1 ACP         0.4440
     34 H3B1       -0.9668   -1.7478   -6.7076 H         1 ACP         0.1084
     35 H3B2       -1.5669   -1.0371   -5.2119 H         1 ACP         0.1084
     36 H5'1       -1.6462    2.0968   -2.8052 H         1 ACP         0.0281
     37 H5'2       -0.6469    0.7893   -2.1194 H         1 ACP         0.0281
     38 H4'        -1.1469    3.5409   -0.8522 H         1 ACP         0.1082
     39 H3'         1.1601    2.1310   -0.2934 H         1 ACP         0.0650
     40 HO3'        0.9173    2.8584    1.8048 H         1 ACP         0.4300
     41 H2'        -0.0024   -0.0091    0.0062 H         1 ACP         0.0785
     42 HO2'        0.0384   -0.3797    2.2403 H         1 ACP         0.4275
     43 H1'        -2.0584    1.4255    1.8301 H         1 ACP         0.1009
     44 H8         -2.9491   -0.3098   -1.3772 H         1 ACP         0.1067
     45 HN61       -5.3737   -4.8224    2.0701 H         1 ACP         0.4213
     46 HN62       -5.1756   -4.1610    0.4694 H         1 ACP         0.4213
     47 H2         -3.0933   -1.9395    4.8410 H         1 ACP         0.0365
@<TRIPOS>BOND
     1    1    2 2
     2    1    3 1
     3    1    4 1
     4    1    8 1
     5    3   32 1
     6    4   33 1
     7    5    6 2
     8    5    7 1
     9    5    8 1
    10    5   12 1
    11    8   34 1
    12    8   35 1
    13    9   10 2
    14    9   11 1
    15    9   12 1
    16    9   13 1
    17   13   14 1
    18   14   15 1
    19   14   36 1
    20   14   37 1
    21   15   16 1
    22   15   17 1
    23   15   38 1
    24   16   21 1
    25   17   18 1
    26   17   19 1
    27   17   39 1
    28   18   40 1
    29   19   20 1
    30   19   21 1
    31   19   41 1
    32   20   42 1
    33   21   22 1
    34   21   43 1
    35   22   23 ar
    36   22   31 ar
    37   23   24 ar
    38   23   44 1
    39   24   25 ar
    40   25   26 ar
    41   25   31 ar
    42   26   27 1
    43   26   28 ar
    44   27   45 1
    45   27   46 1
    46   28   29 ar
    47   29   30 ar
    48   29   47 1
    49   30   31 ar
@<TRIPOS>SUBSTRUCTURE
     1 ACP         1 GROUP 0 A     ****
@<TRIPOS>MOLECULE
[[5-(6-aminopurin-9-yl)-3,4-dihydroxy-tetrahydrofuran-2-yl]methoxy-oxido-phosphoryl]oxy-(phosphonomethyl)phosphinate
   47    49     1     0     0
SMALL
USER_CHARGES

@<TRIPOS>ATOM
      1 PG          0.6265    6.4572    0.0619 P.3       1 ACP         1.6478
      2 O1G         1.3608    5.8702    1.2296 O.2       1 ACP        -0.9103
      3 O2G         0.3959    5.4578   -1.1864 O.3       1 ACP        -0.7989
      4 O3G         1.3183    7.7523   -0.6117 O.3       1 ACP        -0.7989
      5 PB         -2.3703    5.9214    1.0926 P.3       1 ACP         1.4947
      6 O1B        -2.5903    4.8387    0.0616 O.co2     1 ACP        -0.8554
      7 O2B        -3.4929    6.8021    1.5904 O.co2     1 ACP        -0.8554
      8 C3B        -1.0427    7.0342    0.4444 C.3       1 ACP        -0.6550
      9 PA         -1.9154    4.0917    3.3841 P.3       1 ACP         1.5921
     10 O1A        -3.2739    4.3706    3.9902 O.co2     1 ACP        -0.8561
     11 O2A        -0.7157    3.8308    4.2687 O.co2     1 ACP        -0.8561
     12 O3A        -1.5461    5.3085    2.3591 O.3       1 ACP        -0.8166
     13 O5'        -2.0402    2.8619    2.3132 O.3       1 ACP        -0.5737
     14 C5'        -0.8811    2.4285    1.6206 C.3       1 ACP         0.2197
     15 C4'        -0.1994    1.3333    2.4288 C.3       1 ACP         0.0944
     16 O4'        -1.1285    0.2356    2.5840 O.3       1 ACP        -0.4017
     17 C3'         1.0324    0.7610    1.7344 C.3       1 ACP         0.0859
     18 O3'         1.9175    0.2377    2.7247 O.3       1 ACP        -0.5941
     19 C2'         0.4468   -0.3802    0.9263 C.3       1 ACP         0.0924
     20 O2'         1.3993   -1.3703    0.5961 O.3       1 ACP        -0.5928
     21 C1'        -0.6159   -0.9100    1.8769 C.3       1 ACP         0.3967
     22 N9         -1.7127   -1.6108    1.2130 N.pl3     1 ACP        -0.6763
     23 C8         -1.7712   -2.9546    0.9544 C.ar      1 ACP         0.5586
     24 N7         -2.8883   -3.2948    0.3462 N.2       1 ACP        -0.5795
     25 C5         -3.5834   -2.1202    0.2043 C.ar      1 ACP        -0.2116
     26 C6         -4.8225   -1.8251   -0.3554 C.ar      1 ACP         0.7185
     27 N6         -5.6154   -2.8394   -0.9189 N.pl3     1 ACP        -0.9442
     28 N1         -5.2589   -0.5425   -0.3507 N.ar      1 ACP        -0.8040
     29 C2         -4.4510    0.3913    0.2069 C.ar      1 ACP         0.6560
     30 N3         -3.2368    0.2296    0.7767 N.ar      1 ACP        -0.7058
     31 C4         -2.8684   -1.0596    0.7376 C.ar      1 ACP         0.5729
     32 HOG2        1.1773    5.0716   -1.6364 H         1 ACP         0.4440
     33 HOG3        2.2211    7.6682   -0.9857 H         1 ACP         0.4440
     34 H3B1       -0.9532    7.8436    1.1777 H         1 ACP         0.1084
     35 H3B2       -1.4458    7.4778   -0.4732 H         1 ACP         0.1084
     36 H5'1       -1.1771    2.0504    0.6370 H         1 ACP         0.0281
     37 H5'2       -0.2083    3.2816    1.4878 H         1 ACP         0.0281
     38 H4'         0.0403    1.7078    3.4343 H         1 ACP         0.1082
     39 H3'         1.5906    1.4859    1.1353 H         1 ACP         0.0650
     40 HO3'        2.6839   -0.1150    2.2479 H         1 ACP         0.4300
     41 H2'        -0.0017    0.0018    0.0005 H         1 ACP         0.0785
     42 HO2'        2.0953   -0.9375    0.0709 H         1 ACP         0.4275
     43 H1'        -0.1998   -1.6319    2.6178 H         1 ACP         0.1009
     44 H8         -0.9745   -3.6312    1.2318 H         1 ACP         0.1067
     45 HN61       -5.2619   -3.7766   -0.9586 H         1 ACP         0.4213
     46 HN62       -6.4834   -2.5990   -1.3590 H         1 ACP         0.4213
     47 H2         -4.8317    1.4071    0.1930 H         1 ACP         0.0365
@<TRIPOS>BOND
     1    1    2 2
     2    1    3 1
     3    1    4 1
     4    1    8 1
     5    3   32 1
     6    4   33 1
     7    5    6 2
     8    5    7 1
     9    5    8 1
    10    5   12 1
    11    8   34 1
    12    8   35 1
    13    9   10 2
    14    9   11 1
    15    9   12 1
    16    9   13 1
    17   13   14 1
    18   14   15 1
    19   14   36 1
    20   14   37 1
    21   15   16 1
    22   15   17 1
    23   15   38 1
    24   16   21 1
    25   17   18 1
    26   17   19 1
    27   17   39 1
    28   18   40 1
    29   19   20 1
    30   19   21 1
    31   19   41 1
    32   20   42 1
    33   21   22 1
    34   21   43 1
    35   22   23 ar
    36   22   31 ar
    37   23   24 ar
    38   23   44 1
    39   24   25 ar
    40   25   26 ar
    41   25   31 ar
    42   26   27 1
    43   26   28 ar
    44   27   45 1
    45   27   46 1
    46   28   29 ar
    47   29   30 ar
    48   29   47 1
    49   30   31 ar
@<TRIPOS>SUBSTRUCTURE
     1 ACP         1 GROUP 0 A     ****
@<TRIPOS>MOLECULE
[[5-(6-aminopurin-9-yl)-3,4-dihydroxy-tetrahydrofuran-2-yl]methoxy-oxido-phosphoryl]oxy-(phosphonomethyl)phosphinate
   47    49     1     0     0
SMALL
USER_CHARGES

@<TRIPOS>ATOM
      1 PG         -1.9322    3.8606   -2.5957 P.3       1 ACP         1.6478
      2 O1G        -1.7819    4.3155   -4.0161 O.2       1 ACP        -0.9103
      3 O2G        -1.0603    4.6786   -1.5090 O.3       1 ACP        -0.7989
      4 O3G        -1.5374    2.3192   -2.3164 O.3       1 ACP        -0.7989
      5 PB         -4.0711    3.4811   -0.2269 P.3       1 ACP         1.4947
      6 O1B        -3.7285    2.0169   -0.0775 O.co2     1 ACP        -0.8554
      7 O2B        -5.4574    4.0175    0.0449 O.co2     1 ACP        -0.8554
      8 C3B        -3.6156    3.9779   -1.9493 C.3       1 ACP        -0.6550
      9 PA         -2.5401    4.4095    2.1396 P.3       1 ACP         1.5921
     10 O1A        -3.7865    4.6313    2.9690 O.co2     1 ACP        -0.8561
     11 O2A        -1.3389    5.3166    2.2956 O.co2     1 ACP        -0.8561
     12 O3A        -2.9654    4.3827    0.5629 O.3       1 ACP        -0.8166
     13 O5'        -2.0402    2.8619    2.3132 O.3       1 ACP        -0.5737
     14 C5'        -0.8811    2.4285    1.6206 C.3       1 ACP         0.2197
     15 C4'        -0.1994    1.3333    2.4288 C.3       1 ACP         0.0944
     16 O4'        -1.1285    0.2356    2.5840 O.3       1 ACP        -0.4017
     17 C3'         1.0324    0.7610    1.7344 C.3       1 ACP         0.0859
     18 O3'         1.9175    0.2377    2.7247 O.3       1 ACP        -0.5941
     19 C2'         0.4468   -0.3802    0.9263 C.3       1 ACP         0.0924
     20 O2'         1.3993   -1.3703    0.5961 O.3       1 ACP        -0.5928
     21 C1'        -0.6159   -0.9100    1.8769 C.3       1 ACP         0.3967
     22 N9         -1.7127   -1.6108    1.2130 N.pl3     1 ACP        -0.6763
     23 C8         -2.5476   -1.0844    0.2632 C.ar      1 ACP         0.5586
     24 N7         -3.4391   -1.9591   -0.1536 N.2       1 ACP        -0.5795
     25 C5         -3.1701   -3.1016    0.5574 C.ar      1 ACP        -0.2116
     26 C6         -3.7593   -4.3620    0.5656 C.ar      1 ACP         0.7185
     27 N6         -4.8512   -4.6493   -0.2712 N.pl3     1 ACP        -0.9442
     28 N1         -3.2659   -5.3144    1.3932 N.ar      1 ACP        -0.8040
     29 C2         -2.2122   -4.9785    2.1759 C.ar      1 ACP         0.6560
     30 N3         -1.5595   -3.7985    2.2572 N.ar      1 ACP        -0.7058
     31 C4         -2.0986   -2.9054    1.4140 C.ar      1 ACP         0.5729
     32 HOG2       -0.0833    4.6903   -1.5954 H         1 ACP         0.4440
     33 HOG3       -0.6233    2.0204   -2.5093 H         1 ACP         0.4440
     34 H3B1       -3.9366    5.0209   -2.0492 H         1 ACP         0.1084
     35 H3B2       -4.2546    3.3823   -2.6112 H         1 ACP         0.1084
     36 H5'1       -1.1771    2.0504    0.6370 H         1 ACP         0.0281
     37 H5'2       -0.2083    3.2816    1.4878 H         1 ACP         0.0281
     38 H4'         0.0403    1.7078    3.4343 H         1 ACP         0.1082
     39 H3'         1.5906    1.4859    1.1353 H         1 ACP         0.0650
     40 HO3'        2.6839   -0.1150    2.2479 H         1 ACP         0.4300
     41 H2'        -0.0017    0.0018    0.0005 H         1 ACP         0.0785
     42 HO2'        2.0953   -0.9375    0.0709 H         1 ACP         0.4275
     43 H1'        -0.1998   -1.6319    2.6178 H         1 ACP         0.1009
     44 H8         -2.4576   -0.0639   -0.0831 H         1 ACP         0.1067
     45 HN61       -5.2371   -3.9234   -0.8448 H         1 ACP         0.4213
     46 HN62       -5.2909   -5.5485   -0.2160 H         1 ACP         0.4213
     47 H2         -1.8433   -5.7650    2.8259 H         1 ACP         0.0365
@<TRIPOS>BOND
     1    1    2 2
     2    1    3 1
     3    1    4 1
     4    1    8 1
     5    3   32 1
     6    4   33 1
     7    5    6 2
     8    5    7 1
     9    5    8 1
    10    5   12 1
    11    8   34 1
    12    8   35 1
    13    9   10 2
    14    9   11 1
    15    9   12 1
    16    9   13 1
    17   13   14 1
    18   14   15 1
    19   14   36 1
    20   14   37 1
    21   15   16 1
    22   15   17 1
    23   15   38 1
    24   16   21 1
    25   17   18 1
    26   17   19 1
    27   17   39 1
    28   18   40 1
    29   19   20 1
    30   19   21 1
    31   19   41 1
    32   20   42 1
    33   21   22 1
    34   21   43 1
    35   22   23 ar
    36   22   31 ar
    37   23   24 ar
    38   23   44 1
    39   24   25 ar
    40   25   26 ar
    41   25   31 ar
    42   26   27 1
    43   26   28 ar
    44   27   45 1
    45   27   46 1
    46   28   29 ar
    47   29   30 ar
    48   29   47 1
    49   30   31 ar
@<TRIPOS>SUBSTRUCTURE
     1 ACP         1 GROUP 0 A     ****
@<TRIPOS>MOLECULE
[[5-(6-aminopurin-9-yl)-3,4-dihydroxy-tetrahydrofuran-2-yl]methoxy-oxido-phosphoryl]oxy-(phosphonomethyl)phosphinate
   47    49     1     0     0
SMALL
USER_CHARGES

@<TRIPOS>ATOM
      1 PG         -4.9598    4.0550   -0.3440 P.3       1 ACP         1.6478
      2 O1G        -4.1919    2.8934    0.2113 O.2       1 ACP        -0.9103
      3 O2G        -6.5075    4.1448    0.1106 O.3       1 ACP        -0.7989
      4 O3G        -5.0329    4.1301   -1.9561 O.3       1 ACP        -0.7989
      5 PB         -2.5870    6.2227   -0.3203 P.3       1 ACP         1.4947
      6 O1B        -2.4111    7.6187    0.2311 O.co2     1 ACP        -0.8554
      7 O2B        -2.3661    5.8974   -1.7794 O.co2     1 ACP        -0.8554
      8 C3B        -4.2988    5.6733    0.1140 C.3       1 ACP        -0.6550
      9 PA         -0.1841    4.7788    0.6530 P.3       1 ACP         1.5921
     10 O1A         0.5902    5.9920    1.1214 O.co2     1 ACP        -0.8561
     11 O2A         0.1754    4.0890   -0.6450 O.co2     1 ACP        -0.8561
     12 O3A        -1.7713    5.1620    0.6117 O.3       1 ACP        -0.8166
     13 O5'        -0.2059    3.6558    1.8419 O.3       1 ACP        -0.5737
     14 C5'        -0.8811    2.4285    1.6206 C.3       1 ACP         0.2197
     15 C4'        -0.1994    1.3333    2.4288 C.3       1 ACP         0.0944
     16 O4'        -1.1285    0.2356    2.5840 O.3       1 ACP        -0.4017
     17 C3'         1.0324    0.7610    1.7344 C.3       1 ACP         0.0859
     18 O3'         1.9175    0.2377    2.7247 O.3       1 ACP        -0.5941
     19 C2'         0.4468   -0.3802    0.9263 C.3       1 ACP         0.0924
     20 O2'         1.3993   -1.3703    0.5961 O.3       1 ACP        -0.5928
     21 C1'        -0.6159   -0.9100    1.8769 C.3       1 ACP         0.3967
     22 N9         -1.7127   -1.6108    1.2130 N.pl3     1 ACP        -0.6763
     23 C8         -2.8641   -1.0399    0.7392 C.ar      1 ACP         0.5586
     24 N7         -3.6659   -1.9257    0.1858 N.2       1 ACP        -0.5795
     25 C5         -3.0053   -3.1223    0.3069 C.ar      1 ACP        -0.2116
     26 C6         -3.3321   -4.4178   -0.0813 C.ar      1 ACP         0.7185
     27 N6         -4.5476   -4.6866   -0.7335 N.pl3     1 ACP        -0.9442
     28 N1         -2.4608   -5.4225    0.1773 N.ar      1 ACP        -0.8040
     29 C2         -1.3053   -5.1020    0.8081 C.ar      1 ACP         0.6560
     30 N3         -0.8788   -3.8921    1.2315 N.ar      1 ACP        -0.7058
     31 C4         -1.7870   -2.9477    0.9438 C.ar      1 ACP         0.5729
     32 HOG2       -7.1111    3.4037   -0.1096 H         1 ACP         0.4440
     33 HOG3       -5.4421    3.3870   -2.4483 H         1 ACP         0.4440
     34 H3B1       -4.9671    6.4343   -0.3045 H         1 ACP         0.1084
     35 H3B2       -4.3701    5.7507    1.2049 H         1 ACP         0.1084
     36 H5'1       -1.9255    2.5383    1.9294 H         1 ACP         0.0281
     37 H5'2       -0.8472    2.1934    0.5521 H         1 ACP         0.0281
     38 H4'         0.0403    1.7078    3.4343 H         1 ACP         0.1082
     39 H3'         1.5906    1.4859    1.1353 H         1 ACP         0.0650
     40 HO3'        2.6839   -0.1150    2.2479 H         1 ACP         0.4300
     41 H2'        -0.0017    0.0018    0.0005 H         1 ACP         0.0785
     42 HO2'        0.9369   -2.0558    0.0825 H         1 ACP         0.4275
     43 H1'        -0.1998   -1.6319    2.6178 H         1 ACP         0.1009
     44 H8         -3.0609    0.0200    0.8250 H         1 ACP         0.1067
     45 HN61       -4.7432   -5.6184   -1.0469 H         1 ACP         0.4213
     46 HN62       -5.1624   -3.9284   -0.9616 H         1 ACP         0.4213
     47 H2         -0.6318   -5.9307    0.9993 H         1 ACP         0.0365
@<TRIPOS>BOND
     1    1    2 2
     2    1    3 1
     3    1    4 1
     4    1    8 1
     5    3   32 1
     6    4   33 1
     7    5    6 2
     8    5    7 1
     9    5    8 1
    10    5   12 1
    11    8   34 1
    12    8   35 1
    13    9   10 2
    14    9   11 1
    15    9   12 1
    16    9   13 1
    17   13   14 1
    18   14   15 1
    19   14   36 1
    20   14   37 1
    21   15   16 1
    22   15   17 1
    23   15   38 1
    24   16   21 1
    25   17   18 1
    26   17   19 1
    27   17   39 1
    28   18   40 1
    29   19   20 1
    30   19   21 1
    31   19   41 1
    32   20   42 1
    33   21   22 1
    34   21   43 1
    35   22   23 ar
    36   22   31 ar
    37   23   24 ar
    38   23   44 1
    39   24   25 ar
    40   25   26 ar
    41   25   31 ar
    42   26   27 1
    43   26   28 ar
    44   27   45 1
    45   27   46 1
    46   28   29 ar
    47   29   30 ar
    48   29   47 1
    49   30   31 ar
@<TRIPOS>SUBSTRUCTURE
     1 ACP         1 GROUP 0 A     ****
@<TRIPOS>MOLECULE
[[5-(6-aminopurin-9-yl)-3,4-dihydroxy-tetrahydrofuran-2-yl]methoxy-oxido-phosphoryl]oxy-(phosphonomethyl)phosphinate
   47    49     1     0     0
SMALL
USER_CHARGES

@<TRIPOS>ATOM
      1 PG         -6.5906    5.0096    1.4307 P.3       1 ACP         1.6478
      2 O1G        -5.5673    6.0585    1.1145 O.2       1 ACP        -0.9103
      3 O2G        -7.4744    4.5020    0.1770 O.3       1 ACP        -0.7989
      4 O3G        -7.6974    5.4304    2.5296 O.3       1 ACP        -0.7989
      5 PB         -4.6898    2.4297    1.1832 P.3       1 ACP         1.4947
      6 O1B        -5.3544    1.9948   -0.1023 O.co2     1 ACP        -0.8554
      7 O2B        -4.1133    1.4399    2.1689 O.co2     1 ACP        -0.8554
      8 C3B        -5.9056    3.4779    2.1018 C.3       1 ACP        -0.6550
      9 PA         -2.5927    4.4187    1.8559 P.3       1 ACP         1.5921
     10 O1A        -3.4214    5.0525    2.9523 O.co2     1 ACP        -0.8561
     11 O2A        -1.6640    5.2600    1.0075 O.co2     1 ACP        -0.8561
     12 O3A        -3.5926    3.5929    0.8630 O.3       1 ACP        -0.8166
     13 O5'        -1.7337    3.1724    2.4754 O.3       1 ACP        -0.5737
     14 C5'        -0.8811    2.4285    1.6206 C.3       1 ACP         0.2197
     15 C4'        -0.1994    1.3333    2.4288 C.3       1 ACP         0.0944
     16 O4'        -1.1285    0.2356    2.5840 O.3       1 ACP        -0.4017
     17 C3'         1.0324    0.7610    1.7344 C.3       1 ACP         0.0859
     18 O3'         1.9175    0.2377    2.7247 O.3       1 ACP        -0.5941
     19 C2'         0.4468   -0.3802    0.9263 C.3       1 ACP         0.0924
     20 O2'         1.3993   -1.3703    0.5961 O.3       1 ACP        -0.5928
     21 C1'        -0.6159   -0.9100    1.8769 C.3       1 ACP         0.3967
     22 N9         -1.7127   -1.6108    1.2130 N.pl3     1 ACP        -0.6763
     23 C8         -2.5476   -1.0844    0.2632 C.ar      1 ACP         0.5586
     24 N7         -3.4391   -1.9591   -0.1536 N.2       1 ACP        -0.5795
     25 C5         -3.1701   -3.1016    0.5574 C.ar      1 ACP        -0.2116
     26 C6         -3.7593   -4.3620    0.5656 C.ar      1 ACP         0.7185
     27 N6         -4.8512   -4.6493   -0.2712 N.pl3     1 ACP        -0.9442
     28 N1         -3.2659   -5.3144    1.3932 N.ar      1 ACP        -0.8040
     29 C2         -2.2122   -4.9785    2.1759 C.ar      1 ACP         0.6560
     30 N3         -1.5595   -3.7985    2.2572 N.ar      1 ACP        -0.7058
     31 C4         -2.0986   -2.9054    1.4140 C.ar      1 ACP         0.5729
     32 HOG2       -8.0228    5.1519   -0.3116 H         1 ACP         0.4440
     33 HOG3       -8.2750    6.2026    2.3506 H         1 ACP         0.4440
     34 H3B1       -5.4233    3.7209    3.0553 H         1 ACP         0.1084
     35 H3B2       -6.7532    2.8219    2.3308 H         1 ACP         0.1084
     36 H5'1       -1.4802    1.9929    0.8148 H         1 ACP         0.0281
     37 H5'2       -0.1370    3.1043    1.1873 H         1 ACP         0.0281
     38 H4'         0.0403    1.7078    3.4343 H         1 ACP         0.1082
     39 H3'         1.5906    1.4859    1.1353 H         1 ACP         0.0650
     40 HO3'        2.6839   -0.1150    2.2479 H         1 ACP         0.4300
     41 H2'        -0.0017    0.0018    0.0005 H         1 ACP         0.0785
     42 HO2'        2.0953   -0.9375    0.0709 H         1 ACP         0.4275
     43 H1'        -0.1998   -1.6319    2.6178 H         1 ACP         0.1009
     44 H8         -2.4576   -0.0639   -0.0831 H         1 ACP         0.1067
     45 HN61       -5.2371   -3.9234   -0.8448 H         1 ACP         0.4213
     46 HN62       -5.2909   -5.5485   -0.2160 H         1 ACP         0.4213
     47 H2         -1.8433   -5.7650    2.8259 H         1 ACP         0.0365
@<TRIPOS>BOND
     1    1    2 2
     2    1    3 1
     3    1    4 1
     4    1    8 1
     5    3   32 1
     6    4   33 1
     7    5    6 2
     8    5    7 1
     9    5    8 1
    10    5   12 1
    11    8   34 1
    12    8   35 1
    13    9   10 2
    14    9   11 1
    15    9   12 1
    16    9   13 1
    17   13   14 1
    18   14   15 1
    19   14   36 1
    20   14   37 1
    21   15   16 1
    22   15   17 1
    23   15   38 1
    24   16   21 1
    25   17   18 1
    26   17   19 1
    27   17   39 1
    28   18   40 1
    29   19   20 1
    30   19   21 1
    31   19   41 1
    32   20   42 1
    33   21   22 1
    34   21   43 1
    35   22   23 ar
    36   22   31 ar
    37   23   24 ar
    38   23   44 1
    39   24   25 ar
    40   25   26 ar
    41   25   31 ar
    42   26   27 1
    43   26   28 ar
    44   27   45 1
    45   27   46 1
    46   28   29 ar
    47   29   30 ar
    48   29   47 1
    49   30   31 ar
@<TRIPOS>SUBSTRUCTURE
     1 ACP         1 GROUP 0 A     ****
@<TRIPOS>MOLECULE
[[5-(6-aminopurin-9-yl)-3,4-dihydroxy-tetrahydrofuran-2-yl]methoxy-oxido-phosphoryl]oxy-(phosphonomethyl)phosphinate
   47    49     1     0     0
SMALL
USER_CHARGES

@<TRIPOS>ATOM
      1 PG         -4.2292    3.2378    5.2436 P.3       1 ACP         1.6478
      2 O1G        -4.4000    2.6549    6.6142 O.2       1 ACP        -0.9103
      3 O2G        -5.5902    3.4203    4.3925 O.3       1 ACP        -0.7989
      4 O3G        -3.2693    2.4011    4.2496 O.3       1 ACP        -0.7989
      5 PB         -3.1851    5.8338    3.6623 P.3       1 ACP         1.4947
      6 O1B        -2.5766    7.1600    4.0554 O.co2     1 ACP        -0.8554
      7 O2B        -4.4337    5.7377    2.8165 O.co2     1 ACP        -0.8554
      8 C3B        -3.5021    4.8921    5.2222 C.3       1 ACP        -0.6550
      9 PA         -1.0481    5.0552    1.7563 P.3       1 ACP         1.5921
     10 O1A        -0.1188    6.2188    2.0266 O.co2     1 ACP        -0.8561
     11 O2A        -1.8976    5.0221    0.5044 O.co2     1 ACP        -0.8561
     12 O3A        -2.0269    4.8631    3.0495 O.3       1 ACP        -0.8166
     13 O5'        -0.2059    3.6558    1.8419 O.3       1 ACP        -0.5737
     14 C5'        -0.8811    2.4285    1.6206 C.3       1 ACP         0.2197
     15 C4'        -0.1994    1.3333    2.4288 C.3       1 ACP         0.0944
     16 O4'        -1.1285    0.2356    2.5840 O.3       1 ACP        -0.4017
     17 C3'         1.0324    0.7610    1.7344 C.3       1 ACP         0.0859
     18 O3'         1.9175    0.2377    2.7247 O.3       1 ACP        -0.5941
     19 C2'         0.4468   -0.3802    0.9263 C.3       1 ACP         0.0924
     20 O2'         1.3993   -1.3703    0.5961 O.3       1 ACP        -0.5928
     21 C1'        -0.6159   -0.9100    1.8769 C.3       1 ACP         0.3967
     22 N9         -1.7127   -1.6108    1.2130 N.pl3     1 ACP        -0.6763
     23 C8         -2.0877   -2.9101    1.4304 C.ar      1 ACP         0.5586
     24 N7         -3.1152   -3.2613    0.6857 N.2       1 ACP        -0.5795
     25 C5         -3.4186   -2.1409   -0.0462 C.ar      1 ACP        -0.2116
     26 C6         -4.3953   -1.8809   -1.0023 C.ar      1 ACP         0.7185
     27 N6         -5.3118   -2.8767   -1.3812 N.pl3     1 ACP        -0.9442
     28 N1         -4.4538   -0.6507   -1.5667 N.ar      1 ACP        -0.8040
     29 C2         -3.5442    0.2679   -1.1609 C.ar      1 ACP         0.6560
     30 N3         -2.5561    0.1361   -0.2491 N.ar      1 ACP        -0.7058
     31 C4         -2.5568   -1.1019    0.2674 C.ar      1 ACP         0.5729
     32 HOG2       -6.1329    2.6291    4.1889 H         1 ACP         0.4440
     33 HOG3       -3.5064    1.4756    4.0274 H         1 ACP         0.4440
     34 H3B1       -4.1389    5.5414    5.8337 H         1 ACP         0.1084
     35 H3B2       -2.5342    4.8226    5.7316 H         1 ACP         0.1084
     36 H5'1       -1.9255    2.5383    1.9294 H         1 ACP         0.0281
     37 H5'2       -0.8472    2.1934    0.5521 H         1 ACP         0.0281
     38 H4'         0.0403    1.7078    3.4343 H         1 ACP         0.1082
     39 H3'         1.5906    1.4859    1.1353 H         1 ACP         0.0650
     40 HO3'        2.6839   -0.1150    2.2479 H         1 ACP         0.4300
     41 H2'        -0.0017    0.0018    0.0005 H         1 ACP         0.0785
     42 HO2'        2.0953   -0.9375    0.0709 H         1 ACP         0.4275
     43 H1'        -0.1998   -1.6319    2.6178 H         1 ACP         0.1009
     44 H8         -1.5778   -3.5473    2.1399 H         1 ACP         0.1067
     45 HN61       -5.2294   -3.7965   -0.9914 H         1 ACP         0.4213
     46 HN62       -5.9774   -2.6837   -2.1055 H         1 ACP         0.4213
     47 H2         -3.6201    1.2414   -1.6336 H         1 ACP         0.0365
@<TRIPOS>BOND
     1    1    2 2
     2    1    3 1
     3    1    4 1
     4    1    8 1
     5    3   32 1
     6    4   33 1
     7    5    6 2
     8    5    7 1
     9    5    8 1
    10    5   12 1
    11    8   34 1
    12    8   35 1
    13    9   10 2
    14    9   11 1
    15    9   12 1
    16    9   13 1
    17   13   14 1
    18   14   15 1
    19   14   36 1
    20   14   37 1
    21   15   16 1
    22   15   17 1
    23   15   38 1
    24   16   21 1
    25   17   18 1
    26   17   19 1
    27   17   39 1
    28   18   40 1
    29   19   20 1
    30   19   21 1
    31   19   41 1
    32   20   42 1
    33   21   22 1
    34   21   43 1
    35   22   23 ar
    36   22   31 ar
    37   23   24 ar
    38   23   44 1
    39   24   25 ar
    40   25   26 ar
    41   25   31 ar
    42   26   27 1
    43   26   28 ar
    44   27   45 1
    45   27   46 1
    46   28   29 ar
    47   29   30 ar
    48   29   47 1
    49   30   31 ar
@<TRIPOS>SUBSTRUCTURE
     1 ACP         1 GROUP 0 A     ****
@<TRIPOS>MOLECULE
[[5-(6-aminopurin-9-yl)-3,4-dihydroxy-tetrahydrofuran-2-yl]methoxy-oxido-phosphoryl]oxy-(phosphonomethyl)phosphinate
   47    49     1     0     0
SMALL
USER_CHARGES

@<TRIPOS>ATOM
      1 PG         -2.7663    6.6142   -2.6485 P.3       1 ACP         1.6478
      2 O1G        -1.9249    7.8286   -2.9026 O.2       1 ACP        -0.9103
      3 O2G        -3.9872    6.3870   -3.6820 O.3       1 ACP        -0.7989
      4 O3G        -3.4795    6.5562   -1.2001 O.3       1 ACP        -0.7989
      5 PB         -0.4377    4.6553   -1.6141 P.3       1 ACP         1.4947
      6 O1B         0.6262    5.6999   -1.8599 O.co2     1 ACP        -0.8554
      7 O2B        -0.1616    3.1754   -1.7459 O.co2     1 ACP        -0.8554
      8 C3B        -1.8623    5.0514   -2.7251 C.3       1 ACP        -0.6550
      9 PA         -0.5788    5.0300    1.3263 P.3       1 ACP         1.5921
     10 O1A        -1.7338    5.2023    2.2890 O.co2     1 ACP        -0.8561
     11 O2A         0.5830    5.9997    1.3349 O.co2     1 ACP        -0.8561
     12 O3A        -1.1769    4.9545   -0.1916 O.3       1 ACP        -0.8166
     13 O5'         0.0182    3.5132    1.4596 O.3       1 ACP        -0.5737
     14 C5'        -0.8811    2.4285    1.6206 C.3       1 ACP         0.2197
     15 C4'        -0.1994    1.3333    2.4288 C.3       1 ACP         0.0944
     16 O4'        -1.1285    0.2356    2.5840 O.3       1 ACP        -0.4017
     17 C3'         1.0324    0.7610    1.7344 C.3       1 ACP         0.0859
     18 O3'         1.9175    0.2377    2.7247 O.3       1 ACP        -0.5941
     19 C2'         0.4468   -0.3802    0.9263 C.3       1 ACP         0.0924
     20 O2'         1.3993   -1.3703    0.5961 O.3       1 ACP        -0.5928
     21 C1'        -0.6159   -0.9100    1.8769 C.3       1 ACP         0.3967
     22 N9         -1.7127   -1.6108    1.2130 N.pl3     1 ACP        -0.6763
     23 C8         -2.8641   -1.0399    0.7392 C.ar      1 ACP         0.5586
     24 N7         -3.6659   -1.9257    0.1858 N.2       1 ACP        -0.5795
     25 C5         -3.0053   -3.1223    0.3069 C.ar      1 ACP        -0.2116
     26 C6         -3.3321   -4.4178   -0.0813 C.ar      1 ACP         0.7185
     27 N6         -4.5476   -4.6866   -0.7335 N.pl3     1 ACP        -0.9442
     28 N1         -2.4608   -5.4225    0.1773 N.ar      1 ACP        -0.8040
     29 C2         -1.3053   -5.1020    0.8081 C.ar      1 ACP         0.6560
     30 N3         -0.8788   -3.8921    1.2315 N.ar      1 ACP        -0.7058
     31 C4         -1.7870   -2.9477    0.9438 C.ar      1 ACP         0.5729
     32 HOG2       -4.6798    7.0774   -3.7582 H         1 ACP         0.4440
     33 HOG3       -4.1051    7.2689   -0.9496 H         1 ACP         0.4440
     34 H3B1       -2.5862    4.2425   -2.5750 H         1 ACP         0.1084
     35 H3B2       -1.4805    4.9527   -3.7477 H         1 ACP         0.1084
     36 H5'1       -1.7769    2.7852    2.1386 H         1 ACP         0.0281
     37 H5'2       -1.1652    2.0544    0.6320 H         1 ACP         0.0281
     38 H4'         0.0403    1.7078    3.4343 H         1 ACP         0.1082
     39 H3'         1.5906    1.4859    1.1353 H         1 ACP         0.0650
     40 HO3'        2.6839   -0.1150    2.2479 H         1 ACP         0.4300
     41 H2'        -0.0017    0.0018    0.0005 H         1 ACP         0.0785
     42 HO2'        2.0953   -0.9375    0.0709 H         1 ACP         0.4275
     43 H1'        -0.1998   -1.6319    2.6178 H         1 ACP         0.1009
     44 H8         -3.0609    0.0200    0.8250 H         1 ACP         0.1067
     45 HN61       -5.2046   -3.9433   -0.8775 H         1 ACP         0.4213
     46 HN62       -4.7849   -5.6332   -0.9625 H         1 ACP         0.4213
     47 H2         -0.6318   -5.9307    0.9993 H         1 ACP         0.0365
@<TRIPOS>BOND
     1    1    2 2
     2    1    3 1
     3    1    4 1
     4    1    8 1
     5    3   32 1
     6    4   33 1
     7    5    6 2
     8    5    7 1
     9    5    8 1
    10    5   12 1
    11    8   34 1
    12    8   35 1
    13    9   10 2
    14    9   11 1
    15    9   12 1
    16    9   13 1
    17   13   14 1
    18   14   15 1
    19   14   36 1
    20   14   37 1
    21   15   16 1
    22   15   17 1
    23   15   38 1
    24   16   21 1
    25   17   18 1
    26   17   19 1
    27   17   39 1
    28   18   40 1
    29   19   20 1
    30   19   21 1
    31   19   41 1
    32   20   42 1
    33   21   22 1
    34   21   43 1
    35   22   23 ar
    36   22   31 ar
    37   23   24 ar
    38   23   44 1
    39   24   25 ar
    40   25   26 ar
    41   25   31 ar
    42   26   27 1
    43   26   28 ar
    44   27   45 1
    45   27   46 1
    46   28   29 ar
    47   29   30 ar
    48   29   47 1
    49   30   31 ar
@<TRIPOS>SUBSTRUCTURE
     1 ACP         1 GROUP 0 A     ****
@<TRIPOS>MOLECULE
[[5-(6-aminopurin-9-yl)-3,4-dihydroxy-tetrahydrofuran-2-yl]methoxy-oxido-phosphoryl]oxy-(phosphonomethyl)phosphinate
   47    49     1     0     0
SMALL
USER_CHARGES

@<TRIPOS>ATOM
      1 PG         -4.6592    6.1130   -1.9753 P.3       1 ACP         1.6478
      2 O1G        -6.0998    6.2972   -1.6039 O.2       1 ACP        -0.9103
      3 O2G        -3.6016    6.9581   -1.0935 O.3       1 ACP        -0.7989
      4 O3G        -4.2808    6.5018   -3.4969 O.3       1 ACP        -0.7989
      5 PB         -4.0711    3.4811   -0.2269 P.3       1 ACP         1.4947
      6 O1B        -3.4990    2.1105   -0.5056 O.co2     1 ACP        -0.8554
      7 O2B        -5.4322    3.6754    0.4001 O.co2     1 ACP        -0.8554
      8 C3B        -4.0614    4.4145   -1.8236 C.3       1 ACP        -0.6550
      9 PA         -2.5401    4.4095    2.1396 P.3       1 ACP         1.5921
     10 O1A        -3.7865    4.6313    2.9690 O.co2     1 ACP        -0.8561
     11 O2A        -1.3389    5.3166    2.2956 O.co2     1 ACP        -0.8561
     12 O3A        -2.9654    4.3827    0.5629 O.3       1 ACP        -0.8166
     13 O5'        -2.0402    2.8619    2.3132 O.3       1 ACP        -0.5737
     14 C5'        -0.8811    2.4285    1.6206 C.3       1 ACP         0.2197
     15 C4'        -0.1994    1.3333    2.4288 C.3       1 ACP         0.0944
     16 O4'        -1.1285    0.2356    2.5840 O.3       1 ACP        -0.4017
     17 C3'         1.0324    0.7610    1.7344 C.3       1 ACP         0.0859
     18 O3'         1.9175    0.2377    2.7247 O.3       1 ACP        -0.5941
     19 C2'         0.4468   -0.3802    0.9263 C.3       1 ACP         0.0924
     20 O2'         1.3993   -1.3703    0.5961 O.3       1 ACP        -0.5928
     21 C1'        -0.6159   -0.9100    1.8769 C.3       1 ACP         0.3967
     22 N9         -1.7127   -1.6108    1.2130 N.pl3     1 ACP        -0.6763
     23 C8         -2.8641   -1.0399    0.7392 C.ar      1 ACP         0.5586
     24 N7         -3.6659   -1.9257    0.1858 N.2       1 ACP        -0.5795
     25 C5         -3.0053   -3.1223    0.3069 C.ar      1 ACP        -0.2116
     26 C6         -3.3321   -4.4178   -0.0813 C.ar      1 ACP         0.7185
     27 N6         -4.5476   -4.6866   -0.7335 N.pl3     1 ACP        -0.9442
     28 N1         -2.4608   -5.4225    0.1773 N.ar      1 ACP        -0.8040
     29 C2         -1.3053   -5.1020    0.8081 C.ar      1 ACP         0.6560
     30 N3         -0.8788   -3.8921    1.2315 N.ar      1 ACP        -0.7058
     31 C4         -1.7870   -2.9477    0.9438 C.ar      1 ACP         0.5729
     32 HOG2       -3.6651    7.9368   -1.0849 H         1 ACP         0.4440
     33 HOG3       -4.4339    7.4204   -3.8048 H         1 ACP         0.4440
     34 H3B1       -4.6320    3.7986   -2.5279 H         1 ACP         0.1084
     35 H3B2       -3.0204    4.4101   -2.1663 H         1 ACP         0.1084
     36 H5'1       -1.1771    2.0504    0.6370 H         1 ACP         0.0281
     37 H5'2       -0.2083    3.2816    1.4878 H         1 ACP         0.0281
     38 H4'         0.0403    1.7078    3.4343 H         1 ACP         0.1082
     39 H3'         1.5906    1.4859    1.1353 H         1 ACP         0.0650
     40 HO3'        2.6839   -0.1150    2.2479 H         1 ACP         0.4300
     41 H2'        -0.0017    0.0018    0.0005 H         1 ACP         0.0785
     42 HO2'        2.0953   -0.9375    0.0709 H         1 ACP         0.4275
     43 H1'        -0.1998   -1.6319    2.6178 H         1 ACP         0.1009
     44 H8         -3.0609    0.0200    0.8250 H         1 ACP         0.1067
     45 HN61       -5.2046   -3.9433   -0.8775 H         1 ACP         0.4213
     46 HN62       -4.7849   -5.6332   -0.9625 H         1 ACP         0.4213
     47 H2         -0.6318   -5.9307    0.9993 H         1 ACP         0.0365
@<TRIPOS>BOND
     1    1    2 2
     2    1    3 1
     3    1    4 1
     4    1    8 1
     5    3   32 1
     6    4   33 1
     7    5    6 2
     8    5    7 1
     9    5    8 1
    10    5   12 1
    11    8   34 1
    12    8   35 1
    13    9   10 2
    14    9   11 1
    15    9   12 1
    16    9   13 1
    17   13   14 1
    18   14   15 1
    19   14   36 1
    20   14   37 1
    21   15   16 1
    22   15   17 1
    23   15   38 1
    24   16   21 1
    25   17   18 1
    26   17   19 1
    27   17   39 1
    28   18   40 1
    29   19   20 1
    30   19   21 1
    31   19   41 1
    32   20   42 1
    33   21   22 1
    34   21   43 1
    35   22   23 ar
    36   22   31 ar
    37   23   24 ar
    38   23   44 1
    39   24   25 ar
    40   25   26 ar
    41   25   31 ar
    42   26   27 1
    43   26   28 ar
    44   27   45 1
    45   27   46 1
    46   28   29 ar
    47   29   30 ar
    48   29   47 1
    49   30   31 ar
@<TRIPOS>SUBSTRUCTURE
     1 ACP         1 GROUP 0 A     ****
@<TRIPOS>MOLECULE
[[5-(6-aminopurin-9-yl)-3,4-dihydroxy-tetrahydrofuran-2-yl]methoxy-oxido-phosphoryl]oxy-(phosphonomethyl)phosphinate
   47    49     1     0     0
SMALL
USER_CHARGES

@<TRIPOS>ATOM
      1 PG          2.9416    5.0757    0.3875 P.3       1 ACP         1.6478
      2 O1G         2.0933    4.5015    1.4820 O.2       1 ACP        -0.9103
      3 O2G         4.5369    4.9856    0.6260 O.3       1 ACP        -0.7989
      4 O3G         2.6936    6.6395    0.0668 O.3       1 ACP        -0.7989
      5 PB          1.0941    4.2402   -2.1063 P.3       1 ACP         1.4947
      6 O1B         1.3115    3.4988   -3.4050 O.co2     1 ACP        -0.8554
      7 O2B         0.5177    5.6364   -2.0606 O.co2     1 ACP        -0.8554
      8 C3B         2.7180    4.2850   -1.2220 C.3       1 ACP        -0.6550
      9 PA         -1.2906    2.9169   -0.9367 P.3       1 ACP         1.5921
     10 O1A        -1.6998    2.1387   -2.1686 O.co2     1 ACP        -0.8561
     11 O2A        -2.0377    4.1694   -0.5329 O.co2     1 ACP        -0.8561
     12 O3A         0.2974    3.2793   -1.0570 O.3       1 ACP        -0.8166
     13 O5'        -1.2434    1.9101    0.3513 O.3       1 ACP        -0.5737
     14 C5'        -0.8811    2.4285    1.6206 C.3       1 ACP         0.2197
     15 C4'        -0.1994    1.3333    2.4288 C.3       1 ACP         0.0944
     16 O4'        -1.1285    0.2356    2.5840 O.3       1 ACP        -0.4017
     17 C3'         1.0324    0.7610    1.7344 C.3       1 ACP         0.0859
     18 O3'         1.9175    0.2377    2.7247 O.3       1 ACP        -0.5941
     19 C2'         0.4468   -0.3802    0.9263 C.3       1 ACP         0.0924
     20 O2'         1.3993   -1.3703    0.5961 O.3       1 ACP        -0.5928
     21 C1'        -0.6159   -0.9100    1.8769 C.3       1 ACP         0.3967
     22 N9         -1.7127   -1.6108    1.2130 N.pl3     1 ACP        -0.6763
     23 C8         -2.8641   -1.0399    0.7392 C.ar      1 ACP         0.5586
     24 N7         -3.6659   -1.9257    0.1858 N.2       1 ACP        -0.5795
     25 C5         -3.0053   -3.1223    0.3069 C.ar      1 ACP        -0.2116
     26 C6         -3.3321   -4.4178   -0.0813 C.ar      1 ACP         0.7185
     27 N6         -4.5476   -4.6866   -0.7335 N.pl3     1 ACP        -0.9442
     28 N1         -2.4608   -5.4225    0.1773 N.ar      1 ACP        -0.8040
     29 C2         -1.3053   -5.1020    0.8081 C.ar      1 ACP         0.6560
     30 N3         -0.8788   -3.8921    1.2315 N.ar      1 ACP        -0.7058
     31 C4         -1.7870   -2.9477    0.9438 C.ar      1 ACP         0.5729
     32 HOG2        4.9257    5.4277    1.4105 H         1 ACP         0.4440
     33 HOG3        2.8396    7.2993    0.7777 H         1 ACP         0.4440
     34 H3B1        3.4208    4.7523   -1.9209 H         1 ACP         0.1084
     35 H3B2        3.0265    3.2393   -1.1101 H         1 ACP         0.1084
     36 H5'1       -0.2035    3.2759    1.4765 H         1 ACP         0.0281
     37 H5'2       -1.7842    2.7761    2.1320 H         1 ACP         0.0281
     38 H4'         0.0403    1.7078    3.4343 H         1 ACP         0.1082
     39 H3'         1.5906    1.4859    1.1353 H         1 ACP         0.0650
     40 HO3'        2.6839   -0.1150    2.2479 H         1 ACP         0.4300
     41 H2'        -0.0017    0.0018    0.0005 H         1 ACP         0.0785
     42 HO2'        2.0953   -0.9375    0.0709 H         1 ACP         0.4275
     43 H1'        -0.1998   -1.6319    2.6178 H         1 ACP         0.1009
     44 H8         -3.0609    0.0200    0.8250 H         1 ACP         0.1067
     45 HN61       -5.2046   -3.9433   -0.8775 H         1 ACP         0.4213
     46 HN62       -4.7849   -5.6332   -0.9625 H         1 ACP         0.4213
     47 H2         -0.6318   -5.9307    0.9993 H         1 ACP         0.0365
@<TRIPOS>BOND
     1    1    2 2
     2    1    3 1
     3    1    4 1
     4    1    8 1
     5    3   32 1
     6    4   33 1
     7    5    6 2
     8    5    7 1
     9    5    8 1
    10    5   12 1
    11    8   34 1
    12    8   35 1
    13    9   10 2
    14    9   11 1
    15    9   12 1
    16    9   13 1
    17   13   14 1
    18   14   15 1
    19   14   36 1
    20   14   37 1
    21   15   16 1
    22   15   17 1
    23   15   38 1
    24   16   21 1
    25   17   18 1
    26   17   19 1
    27   17   39 1
    28   18   40 1
    29   19   20 1
    30   19   21 1
    31   19   41 1
    32   20   42 1
    33   21   22 1
    34   21   43 1
    35   22   23 ar
    36   22   31 ar
    37   23   24 ar
    38   23   44 1
    39   24   25 ar
    40   25   26 ar
    41   25   31 ar
    42   26   27 1
    43   26   28 ar
    44   27   45 1
    45   27   46 1
    46   28   29 ar
    47   29   30 ar
    48   29   47 1
    49   30   31 ar
@<TRIPOS>SUBSTRUCTURE
     1 ACP         1 GROUP 0 A     ****
@<TRIPOS>MOLECULE
[[5-(6-aminopurin-9-yl)-3,4-dihydroxy-tetrahydrofuran-2-yl]methoxy-oxido-phosphoryl]oxy-(phosphonomethyl)phosphinate
   47    49     1     0     0
SMALL
USER_CHARGES

@<TRIPOS>ATOM
      1 PG         -3.4846    6.8814    4.5188 P.3       1 ACP         1.6478
      2 O1G        -3.2717    5.4308    4.8311 O.2       1 ACP        -0.9103
      3 O2G        -2.3335    7.8822    5.0513 O.3       1 ACP        -0.7989
      4 O3G        -4.8464    7.5237    5.1043 O.3       1 ACP        -0.7989
      5 PB         -2.1970    6.9070    1.5741 P.3       1 ACP         1.4947
      6 O1B        -0.9933    7.6886    2.0471 O.co2     1 ACP        -0.8554
      7 O2B        -2.7526    7.0483    0.1759 O.co2     1 ACP        -0.8554
      8 C3B        -3.5774    7.2584    2.7539 C.3       1 ACP        -0.6550
      9 PA         -2.9648    4.0418    1.6589 P.3       1 ACP         1.5921
     10 O1A        -3.0690    3.8284    0.1642 O.co2     1 ACP        -0.8561
     11 O2A        -4.2106    4.1925    2.5047 O.co2     1 ACP        -0.8561
     12 O3A        -1.9968    5.3287    1.9318 O.3       1 ACP        -0.8166
     13 O5'        -2.0402    2.8619    2.3132 O.3       1 ACP        -0.5737
     14 C5'        -0.8811    2.4285    1.6206 C.3       1 ACP         0.2197
     15 C4'        -0.1994    1.3333    2.4288 C.3       1 ACP         0.0944
     16 O4'        -1.1285    0.2356    2.5840 O.3       1 ACP        -0.4017
     17 C3'         1.0324    0.7610    1.7344 C.3       1 ACP         0.0859
     18 O3'         1.9175    0.2377    2.7247 O.3       1 ACP        -0.5941
     19 C2'         0.4468   -0.3802    0.9263 C.3       1 ACP         0.0924
     20 O2'         1.3993   -1.3703    0.5961 O.3       1 ACP        -0.5928
     21 C1'        -0.6159   -0.9100    1.8769 C.3       1 ACP         0.3967
     22 N9         -1.7127   -1.6108    1.2130 N.pl3     1 ACP        -0.6763
     23 C8         -2.8641   -1.0399    0.7392 C.ar      1 ACP         0.5586
     24 N7         -3.6659   -1.9257    0.1858 N.2       1 ACP        -0.5795
     25 C5         -3.0053   -3.1223    0.3069 C.ar      1 ACP        -0.2116
     26 C6         -3.3321   -4.4178   -0.0813 C.ar      1 ACP         0.7185
     27 N6         -4.5476   -4.6866   -0.7335 N.pl3     1 ACP        -0.9442
     28 N1         -2.4608   -5.4225    0.1773 N.ar      1 ACP        -0.8040
     29 C2         -1.3053   -5.1020    0.8081 C.ar      1 ACP         0.6560
     30 N3         -0.8788   -3.8921    1.2315 N.ar      1 ACP        -0.7058
     31 C4         -1.7870   -2.9477    0.9438 C.ar      1 ACP         0.5729
     32 HOG2       -2.1508    7.9267    6.0139 H         1 ACP         0.4440
     33 HOG3       -4.9945    7.5208    6.0739 H         1 ACP         0.4440
     34 H3B1       -4.4508    6.7349    2.3491 H         1 ACP         0.1084
     35 H3B2       -3.7796    8.3320    2.6664 H         1 ACP         0.1084
     36 H5'1       -1.1771    2.0504    0.6370 H         1 ACP         0.0281
     37 H5'2       -0.2083    3.2816    1.4878 H         1 ACP         0.0281
     38 H4'         0.0403    1.7078    3.4343 H         1 ACP         0.1082
     39 H3'         1.5906    1.4859    1.1353 H         1 ACP         0.0650
     40 HO3'        2.6839   -0.1150    2.2479 H         1 ACP         0.4300
     41 H2'        -0.0017    0.0018    0.0005 H         1 ACP         0.0785
     42 HO2'        2.0953   -0.9375    0.0709 H         1 ACP         0.4275
     43 H1'        -0.1998   -1.6319    2.6178 H         1 ACP         0.1009
     44 H8         -3.0609    0.0200    0.8250 H         1 ACP         0.1067
     45 HN61       -5.2046   -3.9433   -0.8775 H         1 ACP         0.4213
     46 HN62       -4.7849   -5.6332   -0.9625 H         1 ACP         0.4213
     47 H2         -0.6318   -5.9307    0.9993 H         1 ACP         0.0365
@<TRIPOS>BOND
     1    1    2 2
     2    1    3 1
     3    1    4 1
     4    1    8 1
     5    3   32 1
     6    4   33 1
     7    5    6 2
     8    5    7 1
     9    5    8 1
    10    5   12 1
    11    8   34 1
    12    8   35 1
    13    9   10 2
    14    9   11 1
    15    9   12 1
    16    9   13 1
    17   13   14 1
    18   14   15 1
    19   14   36 1
    20   14   37 1
    21   15   16 1
    22   15   17 1
    23   15   38 1
    24   16   21 1
    25   17   18 1
    26   17   19 1
    27   17   39 1
    28   18   40 1
    29   19   20 1
    30   19   21 1
    31   19   41 1
    32   20   42 1
    33   21   22 1
    34   21   43 1
    35   22   23 ar
    36   22   31 ar
    37   23   24 ar
    38   23   44 1
    39   24   25 ar
    40   25   26 ar
    41   25   31 ar
    42   26   27 1
    43   26   28 ar
    44   27   45 1
    45   27   46 1
    46   28   29 ar
    47   29   30 ar
    48   29   47 1
    49   30   31 ar
@<TRIPOS>SUBSTRUCTURE
     1 ACP         1 GROUP 0 A     ****
@<TRIPOS>MOLECULE
[[5-(6-aminopurin-9-yl)-3,4-dihydroxy-tetrahydrofuran-2-yl]methoxy-oxido-phosphoryl]oxy-(phosphonomethyl)phosphinate
   47    49     1     0     0
SMALL
USER_CHARGES

@<TRIPOS>ATOM
      1 PG          3.6308    4.6358   -1.5062 P.3       1 ACP         1.6478
      2 O1G         3.3844    4.4502   -0.0392 O.2       1 ACP        -0.9103
      3 O2G         4.3841    3.4116   -2.2438 O.3       1 ACP        -0.7989
      4 O3G         4.5227    5.9235   -1.9014 O.3       1 ACP        -0.7989
      5 PB          0.7901    3.5852   -2.5817 P.3       1 ACP         1.4947
      6 O1B         1.4053    2.3211   -3.1359 O.co2     1 ACP        -0.8554
      7 O2B        -0.4115    4.2444   -3.2182 O.co2     1 ACP        -0.8554
      8 C3B         2.1323    4.8546   -2.4922 C.3       1 ACP        -0.6550
      9 PA         -0.0885    4.4445    0.1193 P.3       1 ACP         1.5921
     10 O1A        -1.5458    4.6741   -0.2187 O.co2     1 ACP        -0.8561
     11 O2A         0.8596    5.6133    0.2768 O.co2     1 ACP        -0.8561
     12 O3A         0.5414    3.4131   -0.9793 O.3       1 ACP        -0.8166
     13 O5'         0.0182    3.5132    1.4596 O.3       1 ACP        -0.5737
     14 C5'        -0.8811    2.4285    1.6206 C.3       1 ACP         0.2197
     15 C4'        -0.1994    1.3333    2.4288 C.3       1 ACP         0.0944
     16 O4'        -1.1285    0.2356    2.5840 O.3       1 ACP        -0.4017
     17 C3'         1.0324    0.7610    1.7344 C.3       1 ACP         0.0859
     18 O3'         1.9175    0.2377    2.7247 O.3       1 ACP        -0.5941
     19 C2'         0.4468   -0.3802    0.9263 C.3       1 ACP         0.0924
     20 O2'         1.3993   -1.3703    0.5961 O.3       1 ACP        -0.5928
     21 C1'        -0.6159   -0.9100    1.8769 C.3       1 ACP         0.3967
     22 N9         -1.7127   -1.6108    1.2130 N.pl3     1 ACP        -0.6763
     23 C8         -2.8641   -1.0399    0.7392 C.ar      1 ACP         0.5586
     24 N7         -3.6659   -1.9257    0.1858 N.2       1 ACP        -0.5795
     25 C5         -3.0053   -3.1223    0.3069 C.ar      1 ACP        -0.2116
     26 C6         -3.3321   -4.4178   -0.0813 C.ar      1 ACP         0.7185
     27 N6         -4.5476   -4.6866   -0.7335 N.pl3     1 ACP        -0.9442
     28 N1         -2.4608   -5.4225    0.1773 N.ar      1 ACP        -0.8040
     29 C2         -1.3053   -5.1020    0.8081 C.ar      1 ACP         0.6560
     30 N3         -0.8788   -3.8921    1.2315 N.ar      1 ACP        -0.7058
     31 C4         -1.7870   -2.9477    0.9438 C.ar      1 ACP         0.5729
     32 HOG2        5.2794    3.1518   -1.9388 H         1 ACP         0.4440
     33 HOG3        5.4361    5.9944   -1.5512 H         1 ACP         0.4440
     34 H3B1        1.6444    5.7753   -2.1529 H         1 ACP         0.1084
     35 H3B2        2.4522    5.0252   -3.5265 H         1 ACP         0.1084
     36 H5'1       -1.7769    2.7852    2.1386 H         1 ACP         0.0281
     37 H5'2       -1.1652    2.0544    0.6320 H         1 ACP         0.0281
     38 H4'         0.0403    1.7078    3.4343 H         1 ACP         0.1082
     39 H3'         1.5906    1.4859    1.1353 H         1 ACP         0.0650
     40 HO3'        2.6839   -0.1150    2.2479 H         1 ACP         0.4300
     41 H2'        -0.0017    0.0018    0.0005 H         1 ACP         0.0785
     42 HO2'        2.0953   -0.9375    0.0709 H         1 ACP         0.4275
     43 H1'        -0.1998   -1.6319    2.6178 H         1 ACP         0.1009
     44 H8         -3.0609    0.0200    0.8250 H         1 ACP         0.1067
     45 HN61       -5.2046   -3.9433   -0.8775 H         1 ACP         0.4213
     46 HN62       -4.7849   -5.6332   -0.9625 H         1 ACP         0.4213
     47 H2         -0.6318   -5.9307    0.9993 H         1 ACP         0.0365
@<TRIPOS>BOND
     1    1    2 2
     2    1    3 1
     3    1    4 1
     4    1    8 1
     5    3   32 1
     6    4   33 1
     7    5    6 2
     8    5    7 1
     9    5    8 1
    10    5   12 1
    11    8   34 1
    12    8   35 1
    13    9   10 2
    14    9   11 1
    15    9   12 1
    16    9   13 1
    17   13   14 1
    18   14   15 1
    19   14   36 1
    20   14   37 1
    21   15   16 1
    22   15   17 1
    23   15   38 1
    24   16   21 1
    25   17   18 1
    26   17   19 1
    27   17   39 1
    28   18   40 1
    29   19   20 1
    30   19   21 1
    31   19   41 1
    32   20   42 1
    33   21   22 1
    34   21   43 1
    35   22   23 ar
    36   22   31 ar
    37   23   24 ar
    38   23   44 1
    39   24   25 ar
    40   25   26 ar
    41   25   31 ar
    42   26   27 1
    43   26   28 ar
    44   27   45 1
    45   27   46 1
    46   28   29 ar
    47   29   30 ar
    48   29   47 1
    49   30   31 ar
@<TRIPOS>SUBSTRUCTURE
     1 ACP         1 GROUP 0 A     ****
@<TRIPOS>MOLECULE
[[5-(6-aminopurin-9-yl)-3,4-dihydroxy-tetrahydrofuran-2-yl]methoxy-oxido-phosphoryl]oxy-(phosphonomethyl)phosphinate
   47    49     1     0     0
SMALL
USER_CHARGES

@<TRIPOS>ATOM
      1 PG         -4.2311    0.9912   -5.4069 P.3       1 ACP         1.6478
      2 O1G        -3.7472    0.8531   -3.9948 O.2       1 ACP        -0.9103
      3 O2G        -5.7899    1.3828   -5.5712 O.3       1 ACP        -0.7989
      4 O3G        -4.0724   -0.3279   -6.3259 O.3       1 ACP        -0.7989
      5 PB         -1.5588    2.2394   -6.6840 P.3       1 ACP         1.4947
      6 O1B        -1.2315    3.4600   -7.5125 O.co2     1 ACP        -0.8554
      7 O2B        -1.1995    0.8410   -7.1300 O.co2     1 ACP        -0.8554
      8 C3B        -3.3806    2.2654   -6.3653 C.3       1 ACP        -0.6550
      9 PA          0.4195    2.3431   -4.4746 P.3       1 ACP         1.5921
     10 O1A         1.3126    3.4107   -5.0688 O.co2     1 ACP        -0.8561
     11 O2A         0.8324    0.8876   -4.5060 O.co2     1 ACP        -0.8561
     12 O3A        -1.0625    2.4739   -5.1484 O.3       1 ACP        -0.8166
     13 O5'         0.0526    2.7390   -2.9307 O.3       1 ACP        -0.5737
     14 C5'        -0.7794    1.8744   -2.1748 C.3       1 ACP         0.2197
     15 C4'        -0.9699    2.4597   -0.7819 C.3       1 ACP         0.0944
     16 O4'        -2.1475    1.8640   -0.2014 O.3       1 ACP        -0.4017
     17 C3'         0.1697    2.1347    0.1695 C.3       1 ACP         0.0859
     18 O3'         0.1809    3.0982    1.2223 O.3       1 ACP        -0.5941
     19 C2'        -0.2543    0.7880    0.7187 C.3       1 ACP         0.0924
     20 O2'         0.3606    0.4944    1.9582 O.3       1 ACP        -0.5928
     21 C1'        -1.7682    0.9516    0.8548 C.3       1 ACP         0.3967
     22 N9         -2.5926   -0.2553    0.7436 N.pl3     1 ACP        -0.6763
     23 C8         -3.4452   -0.7398    1.6998 C.ar      1 ACP         0.5586
     24 N7         -4.0528   -1.8413    1.3109 N.2       1 ACP        -0.5795
     25 C5         -3.5725   -2.0808    0.0480 C.ar      1 ACP        -0.2116
     26 C6         -3.8302   -3.0862   -0.8786 C.ar      1 ACP         0.7185
     27 N6         -4.7399   -4.1165   -0.5855 N.pl3     1 ACP        -0.9442
     28 N1         -3.1915   -3.0606   -2.0731 N.ar      1 ACP        -0.8040
     29 C2         -2.3264   -2.0424   -2.2985 C.ar      1 ACP         0.6560
     30 N3         -1.9948   -1.0167   -1.4843 N.ar      1 ACP        -0.7058
     31 C4         -2.6619   -1.1046   -0.3238 C.ar      1 ACP         0.5729
     32 HOG2       -6.4720    0.7828   -5.2015 H         1 ACP         0.4440
     33 HOG3       -4.5282   -1.1532   -6.0553 H         1 ACP         0.4440
     34 H3B1       -3.8516    2.3056   -7.3540 H         1 ACP         0.1084
     35 H3B2       -3.5848    3.2240   -5.8750 H         1 ACP         0.1084
     36 H5'1       -1.7434    1.7764   -2.6839 H         1 ACP         0.0281
     37 H5'2       -0.3052    0.8897   -2.1149 H         1 ACP         0.0281
     38 H4'        -1.1469    3.5409   -0.8522 H         1 ACP         0.1082
     39 H3'         1.1601    2.1310   -0.2934 H         1 ACP         0.0650
     40 HO3'        0.9173    2.8584    1.8048 H         1 ACP         0.4300
     41 H2'        -0.0024   -0.0091    0.0062 H         1 ACP         0.0785
     42 HO2'        0.0384   -0.3797    2.2403 H         1 ACP         0.4275
     43 H1'        -2.0584    1.4255    1.8301 H         1 ACP         0.1009
     44 H8         -3.5812   -0.2495    2.6541 H         1 ACP         0.1067
     45 HN61       -5.1710   -4.1509    0.3189 H         1 ACP         0.4213
     46 HN62       -4.8760   -4.8567   -1.2476 H         1 ACP         0.4213
     47 H2         -1.8329   -2.0536   -3.2645 H         1 ACP         0.0365
@<TRIPOS>BOND
     1    1    2 2
     2    1    3 1
     3    1    4 1
     4    1    8 1
     5    3   32 1
     6    4   33 1
     7    5    6 2
     8    5    7 1
     9    5    8 1
    10    5   12 1
    11    8   34 1
    12    8   35 1
    13    9   10 2
    14    9   11 1
    15    9   12 1
    16    9   13 1
    17   13   14 1
    18   14   15 1
    19   14   36 1
    20   14   37 1
    21   15   16 1
    22   15   17 1
    23   15   38 1
    24   16   21 1
    25   17   18 1
    26   17   19 1
    27   17   39 1
    28   18   40 1
    29   19   20 1
    30   19   21 1
    31   19   41 1
    32   20   42 1
    33   21   22 1
    34   21   43 1
    35   22   23 ar
    36   22   31 ar
    37   23   24 ar
    38   23   44 1
    39   24   25 ar
    40   25   26 ar
    41   25   31 ar
    42   26   27 1
    43   26   28 ar
    44   27   45 1
    45   27   46 1
    46   28   29 ar
    47   29   30 ar
    48   29   47 1
    49   30   31 ar
@<TRIPOS>SUBSTRUCTURE
     1 ACP         1 GROUP 0 A     ****
@<TRIPOS>MOLECULE
[[5-(6-aminopurin-9-yl)-3,4-dihydroxy-tetrahydrofuran-2-yl]methoxy-oxido-phosphoryl]oxy-(phosphonomethyl)phosphinate
   47    49     1     0     0
SMALL
USER_CHARGES

@<TRIPOS>ATOM
      1 PG          2.0704    2.1825   -6.7595 P.3       1 ACP         1.6478
      2 O1G         3.5695    2.1792   -6.7690 O.2       1 ACP        -0.9103
      3 O2G         1.3686    2.6246   -8.1460 O.3       1 ACP        -0.7989
      4 O3G         1.3866    3.1511   -5.6623 O.3       1 ACP        -0.7989
      5 PB         -0.5052    0.3059   -6.3417 P.3       1 ACP         1.4947
      6 O1B        -0.7321   -1.1549   -6.0286 O.co2     1 ACP        -0.8554
      7 O2B        -1.1051    0.9734   -7.5576 O.co2     1 ACP        -0.8554
      8 C3B         1.3234    0.5742   -6.4114 C.3       1 ACP        -0.6550
      9 PA         -2.2218    1.7171   -4.3750 P.3       1 ACP         1.5921
     10 O1A        -3.0049    0.5102   -3.9053 O.co2     1 ACP        -0.8561
     11 O2A        -2.8420    2.7148   -5.3289 O.co2     1 ACP        -0.8561
     12 O3A        -0.8096    1.2016   -5.0135 O.3       1 ACP        -0.8166
     13 O5'        -1.6520    2.5338   -3.0775 O.3       1 ACP        -0.5737
     14 C5'        -0.7794    1.8744   -2.1748 C.3       1 ACP         0.2197
     15 C4'        -0.9699    2.4597   -0.7819 C.3       1 ACP         0.0944
     16 O4'        -2.1475    1.8640   -0.2014 O.3       1 ACP        -0.4017
     17 C3'         0.1697    2.1347    0.1695 C.3       1 ACP         0.0859
     18 O3'         0.1809    3.0982    1.2223 O.3       1 ACP        -0.5941
     19 C2'        -0.2543    0.7880    0.7187 C.3       1 ACP         0.0924
     20 O2'         0.3606    0.4944    1.9582 O.3       1 ACP        -0.5928
     21 C1'        -1.7682    0.9516    0.8548 C.3       1 ACP         0.3967
     22 N9         -2.5926   -0.2553    0.7436 N.pl3     1 ACP        -0.6763
     23 C8         -2.6465   -1.0979   -0.3350 C.ar      1 ACP         0.5586
     24 N7         -3.4765   -2.1012   -0.1400 N.2       1 ACP        -0.5795
     25 C5         -3.9826   -1.8994    1.1194 C.ar      1 ACP        -0.2116
     26 C6         -4.8981   -2.6116    1.8877 C.ar      1 ACP         0.7185
     27 N6         -5.4931   -3.7842    1.3916 N.pl3     1 ACP        -0.9442
     28 N1         -5.2111   -2.1602    3.1262 N.ar      1 ACP        -0.8040
     29 C2         -4.6051   -1.0248    3.5500 C.ar      1 ACP         0.6560
     30 N3         -3.7075   -0.2510    2.9016 N.ar      1 ACP        -0.7058
     31 C4         -3.4448   -0.7551    1.6866 C.ar      1 ACP         0.5729
     32 HOG2        1.5517    3.5178   -8.5074 H         1 ACP         0.4440
     33 HOG3        1.5723    4.1136   -5.6967 H         1 ACP         0.4440
     34 H3B1        1.6962   -0.1331   -7.1608 H         1 ACP         0.1084
     35 H3B2        1.7112    0.2449   -5.4407 H         1 ACP         0.1084
     36 H5'1       -1.0116    0.8048   -2.1755 H         1 ACP         0.0281
     37 H5'2        0.2522    2.0163   -2.5121 H         1 ACP         0.0281
     38 H4'        -1.1469    3.5409   -0.8522 H         1 ACP         0.1082
     39 H3'         1.1601    2.1310   -0.2934 H         1 ACP         0.0650
     40 HO3'        0.9173    2.8584    1.8048 H         1 ACP         0.4300
     41 H2'        -0.0024   -0.0091    0.0062 H         1 ACP         0.0785
     42 HO2'        0.0384   -0.3797    2.2403 H         1 ACP         0.4275
     43 H1'        -2.0584    1.4255    1.8301 H         1 ACP         0.1009
     44 H8         -2.0609   -0.9301   -1.2286 H         1 ACP         0.1067
     45 HN61       -5.2894   -4.0827    0.4566 H         1 ACP         0.4213
     46 HN62       -6.1852   -4.2564    1.9420 H         1 ACP         0.4213
     47 H2         -4.8793   -0.6924    4.5457 H         1 ACP         0.0365
@<TRIPOS>BOND
     1    1    2 2
     2    1    3 1
     3    1    4 1
     4    1    8 1
     5    3   32 1
     6    4   33 1
     7    5    6 2
     8    5    7 1
     9    5    8 1
    10    5   12 1
    11    8   34 1
    12    8   35 1
    13    9   10 2
    14    9   11 1
    15    9   12 1
    16    9   13 1
    17   13   14 1
    18   14   15 1
    19   14   36 1
    20   14   37 1
    21   15   16 1
    22   15   17 1
    23   15   38 1
    24   16   21 1
    25   17   18 1
    26   17   19 1
    27   17   39 1
    28   18   40 1
    29   19   20 1
    30   19   21 1
    31   19   41 1
    32   20   42 1
    33   21   22 1
    34   21   43 1
    35   22   23 ar
    36   22   31 ar
    37   23   24 ar
    38   23   44 1
    39   24   25 ar
    40   25   26 ar
    41   25   31 ar
    42   26   27 1
    43   26   28 ar
    44   27   45 1
    45   27   46 1
    46   28   29 ar
    47   29   30 ar
    48   29   47 1
    49   30   31 ar
@<TRIPOS>SUBSTRUCTURE
     1 ACP         1 GROUP 0 A     ****
@<TRIPOS>MOLECULE
[[5-(6-aminopurin-9-yl)-3,4-dihydroxy-tetrahydrofuran-2-yl]methoxy-oxido-phosphoryl]oxy-(phosphonomethyl)phosphinate
   47    49     1     0     0
SMALL
USER_CHARGES

@<TRIPOS>ATOM
      1 PG          8.4355    4.3342   -3.6366 P.3       1 ACP         1.6478
      2 O1G         9.0867    3.5982   -2.5045 O.2       1 ACP        -0.9103
      3 O2G         8.5634    3.6318   -5.0859 O.3       1 ACP        -0.7989
      4 O3G         8.9796    5.8336   -3.8923 O.3       1 ACP        -0.7989
      5 PB          5.4623    3.1638   -3.2902 P.3       1 ACP         1.4947
      6 O1B         5.5840    2.3319   -4.5458 O.co2     1 ACP        -0.8554
      7 O2B         4.1438    3.7400   -2.8284 O.co2     1 ACP        -0.8554
      8 C3B         6.6540    4.5696   -3.4461 C.3       1 ACP        -0.6550
      9 PA          5.8978    0.9307   -1.3850 P.3       1 ACP         1.5921
     10 O1A         6.7853    0.7713   -0.1696 O.co2     1 ACP        -0.8561
     11 O2A         5.9043   -0.1078   -2.4857 O.co2     1 ACP        -0.8561
     12 O3A         6.1915    2.3921   -2.0524 O.3       1 ACP        -0.8166
     13 O5'         4.3514    1.1573   -0.9028 O.3       1 ACP        -0.5737
     14 C5'         4.0922    1.9801    0.2227 C.3       1 ACP         0.2197
     15 C4'         2.5944    2.0310    0.4653 C.3       1 ACP         0.0944
     16 O4'         1.9327    2.5740   -0.6889 O.3       1 ACP        -0.4017
     17 C3'         1.9685    0.6634    0.6767 C.3       1 ACP         0.0859
     18 O3'         2.1425    0.1975    1.9977 O.3       1 ACP        -0.5941
     19 C2'         0.5176    0.9128    0.3099 C.3       1 ACP         0.0924
     20 O2'        -0.2103    1.4454    1.4152 O.3       1 ACP        -0.5928
     21 C1'         0.6219    1.9765   -0.7844 C.3       1 ACP         0.3967
     22 N9          0.4237    1.4496   -2.1357 N.pl3     1 ACP        -0.6763
     23 C8          1.4026    0.9717   -2.9660 C.ar      1 ACP         0.5586
     24 N7          0.9183    0.5619   -4.1197 N.2       1 ACP        -0.5795
     25 C5         -0.4330    0.7845   -4.0331 C.ar      1 ACP        -0.2116
     26 C6         -1.4794    0.5615   -4.9225 C.ar      1 ACP         0.7185
     27 N6         -1.2378    0.0044   -6.1899 N.pl3     1 ACP        -0.9442
     28 N1         -2.7406    0.8885   -4.5512 N.ar      1 ACP        -0.8040
     29 C2         -2.9113    1.4216   -3.3172 C.ar      1 ACP         0.6560
     30 N3         -1.9824    1.6843   -2.3721 N.ar      1 ACP        -0.7058
     31 C4         -0.7613    1.3370   -2.8054 C.ar      1 ACP         0.5729
     32 HOG2        9.4562    3.4732   -5.4598 H         1 ACP         0.4440
     33 HOG3        9.9272    5.9648   -4.1088 H         1 ACP         0.4440
     34 H3B1        6.4953    5.1898   -2.5567 H         1 ACP         0.1084
     35 H3B2        6.3148    5.1550   -4.3083 H         1 ACP         0.1084
     36 H5'1        4.6070    1.5616    1.0933 H         1 ACP         0.0281
     37 H5'2        4.4825    2.9835    0.0251 H         1 ACP         0.0281
     38 H4'         2.3751    2.7029    1.3156 H         1 ACP         0.1082
     39 H3'         2.4336   -0.1217   -0.0015 H         1 ACP         0.0650
     40 HO3'        1.7160   -0.6716    2.0397 H         1 ACP         0.4300
     41 H2'         0.0316    0.0155   -0.0339 H         1 ACP         0.0785
     42 HO2'       -0.1608    0.7921    2.1351 H         1 ACP         0.4275
     43 H1'        -0.1474    2.7798   -0.6651 H         1 ACP         0.1009
     44 H8          2.4442    0.9470   -2.6763 H         1 ACP         0.1067
     45 HN61       -0.2955   -0.1901   -6.4713 H         1 ACP         0.4213
     46 HN62       -1.9987   -0.1045   -6.8334 H         1 ACP         0.4213
     47 H2         -3.9335    1.6716   -3.0534 H         1 ACP         0.0365
@<TRIPOS>BOND
     1    1    2 2
     2    1    3 1
     3    1    4 1
     4    1    8 1
     5    3   32 1
     6    4   33 1
     7    5    6 2
     8    5    7 1
     9    5    8 1
    10    5   12 1
    11    8   34 1
    12    8   35 1
    13    9   10 2
    14    9   11 1
    15    9   12 1
    16    9   13 1
    17   13   14 1
    18   14   15 1
    19   14   36 1
    20   14   37 1
    21   15   16 1
    22   15   17 1
    23   15   38 1
    24   16   21 1
    25   17   18 1
    26   17   19 1
    27   17   39 1
    28   18   40 1
    29   19   20 1
    30   19   21 1
    31   19   41 1
    32   20   42 1
    33   21   22 1
    34   21   43 1
    35   22   23 ar
    36   22   31 ar
    37   23   24 ar
    38   23   44 1
    39   24   25 ar
    40   25   26 ar
    41   25   31 ar
    42   26   27 1
    43   26   28 ar
    44   27   45 1
    45   27   46 1
    46   28   29 ar
    47   29   30 ar
    48   29   47 1
    49   30   31 ar
@<TRIPOS>SUBSTRUCTURE
     1 ACP         1 GROUP 0 A     ****
@<TRIPOS>MOLECULE
[[5-(6-aminopurin-9-yl)-3,4-dihydroxy-tetrahydrofuran-2-yl]methoxy-oxido-phosphoryl]oxy-(phosphonomethyl)phosphinate
   47    49     1     0     0
SMALL
USER_CHARGES

@<TRIPOS>ATOM
      1 PG         -3.7376    7.6756   -0.6352 P.3       1 ACP         1.6478
      2 O1G        -5.1258    7.9969   -1.1010 O.2       1 ACP        -0.9103
      3 O2G        -2.8357    8.9475   -0.2122 O.3       1 ACP        -0.7989
      4 O3G        -2.8123    6.8927   -1.7031 O.3       1 ACP        -0.7989
      5 PB         -2.0802    6.0698    1.6018 P.3       1 ACP         1.4947
      6 O1B        -2.4351    5.2031    2.7877 O.co2     1 ACP        -0.8554
      7 O2B        -1.1993    7.2910    1.7294 O.co2     1 ACP        -0.8554
      8 C3B        -3.6683    6.6143    0.8257 C.3       1 ACP        -0.6550
      9 PA         -0.0885    4.4445    0.1193 P.3       1 ACP         1.5921
     10 O1A         0.9671    5.5276    0.1742 O.co2     1 ACP        -0.8561
     11 O2A        -0.1962    3.5335   -1.0842 O.co2     1 ACP        -0.8561
     12 O3A        -1.5478    5.1301    0.3800 O.3       1 ACP        -0.8166
     13 O5'         0.0182    3.5132    1.4596 O.3       1 ACP        -0.5737
     14 C5'        -0.8811    2.4285    1.6206 C.3       1 ACP         0.2197
     15 C4'        -0.1994    1.3333    2.4288 C.3       1 ACP         0.0944
     16 O4'        -1.1285    0.2356    2.5840 O.3       1 ACP        -0.4017
     17 C3'         1.0324    0.7610    1.7344 C.3       1 ACP         0.0859
     18 O3'         1.9175    0.2377    2.7247 O.3       1 ACP        -0.5941
     19 C2'         0.4468   -0.3802    0.9263 C.3       1 ACP         0.0924
     20 O2'         1.3993   -1.3703    0.5961 O.3       1 ACP        -0.5928
     21 C1'        -0.6159   -0.9100    1.8769 C.3       1 ACP         0.3967
     22 N9         -1.7127   -1.6108    1.2130 N.pl3     1 ACP        -0.6763
     23 C8         -2.8641   -1.0399    0.7392 C.ar      1 ACP         0.5586
     24 N7         -3.6659   -1.9257    0.1858 N.2       1 ACP        -0.5795
     25 C5         -3.0053   -3.1223    0.3069 C.ar      1 ACP        -0.2116
     26 C6         -3.3321   -4.4178   -0.0813 C.ar      1 ACP         0.7185
     27 N6         -4.5476   -4.6866   -0.7335 N.pl3     1 ACP        -0.9442
     28 N1         -2.4608   -5.4225    0.1773 N.ar      1 ACP        -0.8040
     29 C2         -1.3053   -5.1020    0.8081 C.ar      1 ACP         0.6560
     30 N3         -0.8788   -3.8921    1.2315 N.ar      1 ACP        -0.7058
     31 C4         -1.7870   -2.9477    0.9438 C.ar      1 ACP         0.5729
     32 HOG2       -2.6490    9.6408   -0.8804 H         1 ACP         0.4440
     33 HOG3       -2.6228    7.3154   -2.5677 H         1 ACP         0.4440
     34 H3B1       -4.2301    7.1126    1.6238 H         1 ACP         0.1084
     35 H3B2       -4.2113    5.6948    0.5790 H         1 ACP         0.1084
     36 H5'1       -1.7769    2.7852    2.1386 H         1 ACP         0.0281
     37 H5'2       -1.1652    2.0544    0.6320 H         1 ACP         0.0281
     38 H4'         0.0403    1.7078    3.4343 H         1 ACP         0.1082
     39 H3'         1.5906    1.4859    1.1353 H         1 ACP         0.0650
     40 HO3'        2.6839   -0.1150    2.2479 H         1 ACP         0.4300
     41 H2'        -0.0017    0.0018    0.0005 H         1 ACP         0.0785
     42 HO2'        2.0953   -0.9375    0.0709 H         1 ACP         0.4275
     43 H1'        -0.1998   -1.6319    2.6178 H         1 ACP         0.1009
     44 H8         -3.0609    0.0200    0.8250 H         1 ACP         0.1067
     45 HN61       -5.2046   -3.9433   -0.8775 H         1 ACP         0.4213
     46 HN62       -4.7849   -5.6332   -0.9625 H         1 ACP         0.4213
     47 H2         -0.6318   -5.9307    0.9993 H         1 ACP         0.0365
@<TRIPOS>BOND
     1    1    2 2
     2    1    3 1
     3    1    4 1
     4    1    8 1
     5    3   32 1
     6    4   33 1
     7    5    6 2
     8    5    7 1
     9    5    8 1
    10    5   12 1
    11    8   34 1
    12    8   35 1
    13    9   10 2
    14    9   11 1
    15    9   12 1
    16    9   13 1
    17   13   14 1
    18   14   15 1
    19   14   36 1
    20   14   37 1
    21   15   16 1
    22   15   17 1
    23   15   38 1
    24   16   21 1
    25   17   18 1
    26   17   19 1
    27   17   39 1
    28   18   40 1
    29   19   20 1
    30   19   21 1
    31   19   41 1
    32   20   42 1
    33   21   22 1
    34   21   43 1
    35   22   23 ar
    36   22   31 ar
    37   23   24 ar
    38   23   44 1
    39   24   25 ar
    40   25   26 ar
    41   25   31 ar
    42   26   27 1
    43   26   28 ar
    44   27   45 1
    45   27   46 1
    46   28   29 ar
    47   29   30 ar
    48   29   47 1
    49   30   31 ar
@<TRIPOS>SUBSTRUCTURE
     1 ACP         1 GROUP 0 A     ****
@<TRIPOS>MOLECULE
[[5-(6-aminopurin-9-yl)-3,4-dihydroxy-tetrahydrofuran-2-yl]methoxy-oxido-phosphoryl]oxy-(phosphonomethyl)phosphinate
   47    49     1     0     0
SMALL
USER_CHARGES

@<TRIPOS>ATOM
      1 PG         -3.8025    5.6210    4.7372 P.3       1 ACP         1.6478
      2 O1G        -4.8368    5.2032    5.7387 O.2       1 ACP        -0.9103
      3 O2G        -2.5510    4.6131    4.5703 O.3       1 ACP        -0.7989
      4 O3G        -3.1039    7.0503    5.0178 O.3       1 ACP        -0.7989
      5 PB         -3.3560    6.2948    1.6265 P.3       1 ACP         1.4947
      6 O1B        -2.8000    7.6632    1.9459 O.co2     1 ACP        -0.8554
      7 O2B        -4.1304    6.0137    0.3596 O.co2     1 ACP        -0.8554
      8 C3B        -4.4251    5.7915    3.0493 C.3       1 ACP        -0.6550
      9 PA         -0.7382    5.0055    1.0868 P.3       1 ACP         1.5921
     10 O1A         0.1355    6.1779    1.4774 O.co2     1 ACP        -0.8561
     11 O2A        -0.9749    4.6722   -0.3702 O.co2     1 ACP        -0.8561
     12 O3A        -2.1880    5.1734    1.8200 O.3       1 ACP        -0.8166
     13 O5'        -0.2059    3.6558    1.8419 O.3       1 ACP        -0.5737
     14 C5'        -0.8811    2.4285    1.6206 C.3       1 ACP         0.2197
     15 C4'        -0.1994    1.3333    2.4288 C.3       1 ACP         0.0944
     16 O4'        -1.1285    0.2356    2.5840 O.3       1 ACP        -0.4017
     17 C3'         1.0324    0.7610    1.7344 C.3       1 ACP         0.0859
     18 O3'         1.9175    0.2377    2.7247 O.3       1 ACP        -0.5941
     19 C2'         0.4468   -0.3802    0.9263 C.3       1 ACP         0.0924
     20 O2'         1.3993   -1.3703    0.5961 O.3       1 ACP        -0.5928
     21 C1'        -0.6159   -0.9100    1.8769 C.3       1 ACP         0.3967
     22 N9         -1.7127   -1.6108    1.2130 N.pl3     1 ACP        -0.6763
     23 C8         -2.0877   -2.9101    1.4304 C.ar      1 ACP         0.5586
     24 N7         -3.1152   -3.2613    0.6857 N.2       1 ACP        -0.5795
     25 C5         -3.4186   -2.1409   -0.0462 C.ar      1 ACP        -0.2116
     26 C6         -4.3953   -1.8809   -1.0023 C.ar      1 ACP         0.7185
     27 N6         -5.3118   -2.8767   -1.3812 N.pl3     1 ACP        -0.9442
     28 N1         -4.4538   -0.6507   -1.5667 N.ar      1 ACP        -0.8040
     29 C2         -3.5442    0.2679   -1.1609 C.ar      1 ACP         0.6560
     30 N3         -2.5561    0.1361   -0.2491 N.ar      1 ACP        -0.7058
     31 C4         -2.5568   -1.1019    0.2674 C.ar      1 ACP         0.5729
     32 HOG2       -1.9859    4.4242    5.3495 H         1 ACP         0.4440
     33 HOG3       -2.6119    7.1823    5.8560 H         1 ACP         0.4440
     34 H3B1       -4.8660    4.8307    2.7606 H         1 ACP         0.1084
     35 H3B2       -5.2423    6.5210    3.0821 H         1 ACP         0.1084
     36 H5'1       -1.9255    2.5383    1.9294 H         1 ACP         0.0281
     37 H5'2       -0.8472    2.1934    0.5521 H         1 ACP         0.0281
     38 H4'         0.0403    1.7078    3.4343 H         1 ACP         0.1082
     39 H3'         1.5906    1.4859    1.1353 H         1 ACP         0.0650
     40 HO3'        2.6839   -0.1150    2.2479 H         1 ACP         0.4300
     41 H2'        -0.0017    0.0018    0.0005 H         1 ACP         0.0785
     42 HO2'        0.9369   -2.0558    0.0825 H         1 ACP         0.4275
     43 H1'        -0.1998   -1.6319    2.6178 H         1 ACP         0.1009
     44 H8         -1.5778   -3.5473    2.1399 H         1 ACP         0.1067
     45 HN61       -5.2294   -3.7965   -0.9914 H         1 ACP         0.4213
     46 HN62       -5.9774   -2.6837   -2.1055 H         1 ACP         0.4213
     47 H2         -3.6201    1.2414   -1.6336 H         1 ACP         0.0365
@<TRIPOS>BOND
     1    1    2 2
     2    1    3 1
     3    1    4 1
     4    1    8 1
     5    3   32 1
     6    4   33 1
     7    5    6 2
     8    5    7 1
     9    5    8 1
    10    5   12 1
    11    8   34 1
    12    8   35 1
    13    9   10 2
    14    9   11 1
    15    9   12 1
    16    9   13 1
    17   13   14 1
    18   14   15 1
    19   14   36 1
    20   14   37 1
    21   15   16 1
    22   15   17 1
    23   15   38 1
    24   16   21 1
    25   17   18 1
    26   17   19 1
    27   17   39 1
    28   18   40 1
    29   19   20 1
    30   19   21 1
    31   19   41 1
    32   20   42 1
    33   21   22 1
    34   21   43 1
    35   22   23 ar
    36   22   31 ar
    37   23   24 ar
    38   23   44 1
    39   24   25 ar
    40   25   26 ar
    41   25   31 ar
    42   26   27 1
    43   26   28 ar
    44   27   45 1
    45   27   46 1
    46   28   29 ar
    47   29   30 ar
    48   29   47 1
    49   30   31 ar
@<TRIPOS>SUBSTRUCTURE
     1 ACP         1 GROUP 0 A     ****
@<TRIPOS>MOLECULE
[[5-(6-aminopurin-9-yl)-3,4-dihydroxy-tetrahydrofuran-2-yl]methoxy-oxido-phosphoryl]oxy-(phosphonomethyl)phosphinate
   47    49     1     0     0
SMALL
USER_CHARGES

@<TRIPOS>ATOM
      1 PG         -3.3755    4.0650   -2.7762 P.3       1 ACP         1.6478
      2 O1G        -4.1090    3.9895   -1.4710 O.2       1 ACP        -0.9103
      3 O2G        -4.2028    4.7188   -4.0003 O.3       1 ACP        -0.7989
      4 O3G        -2.8725    2.6498   -3.3712 O.3       1 ACP        -0.7989
      5 PB         -0.4377    4.6553   -1.6141 P.3       1 ACP         1.4947
      6 O1B         0.6262    5.6999   -1.8599 O.co2     1 ACP        -0.8554
      7 O2B        -0.1616    3.1754   -1.7459 O.co2     1 ACP        -0.8554
      8 C3B        -1.8623    5.0514   -2.7251 C.3       1 ACP        -0.6550
      9 PA         -0.5788    5.0300    1.3263 P.3       1 ACP         1.5921
     10 O1A        -1.7338    5.2023    2.2890 O.co2     1 ACP        -0.8561
     11 O2A         0.5830    5.9997    1.3349 O.co2     1 ACP        -0.8561
     12 O3A        -1.1769    4.9545   -0.1916 O.3       1 ACP        -0.8166
     13 O5'         0.0182    3.5132    1.4596 O.3       1 ACP        -0.5737
     14 C5'        -0.8811    2.4285    1.6206 C.3       1 ACP         0.2197
     15 C4'        -0.1994    1.3333    2.4288 C.3       1 ACP         0.0944
     16 O4'        -1.1285    0.2356    2.5840 O.3       1 ACP        -0.4017
     17 C3'         1.0324    0.7610    1.7344 C.3       1 ACP         0.0859
     18 O3'         1.9175    0.2377    2.7247 O.3       1 ACP        -0.5941
     19 C2'         0.4468   -0.3802    0.9263 C.3       1 ACP         0.0924
     20 O2'         1.3993   -1.3703    0.5961 O.3       1 ACP        -0.5928
     21 C1'        -0.6159   -0.9100    1.8769 C.3       1 ACP         0.3967
     22 N9         -1.7127   -1.6108    1.2130 N.pl3     1 ACP        -0.6763
     23 C8         -2.5476   -1.0844    0.2632 C.ar      1 ACP         0.5586
     24 N7         -3.4391   -1.9591   -0.1536 N.2       1 ACP        -0.5795
     25 C5         -3.1701   -3.1016    0.5574 C.ar      1 ACP        -0.2116
     26 C6         -3.7593   -4.3620    0.5656 C.ar      1 ACP         0.7185
     27 N6         -4.8512   -4.6493   -0.2712 N.pl3     1 ACP        -0.9442
     28 N1         -3.2659   -5.3144    1.3932 N.ar      1 ACP        -0.8040
     29 C2         -2.2122   -4.9785    2.1759 C.ar      1 ACP         0.6560
     30 N3         -1.5595   -3.7985    2.2572 N.ar      1 ACP        -0.7058
     31 C4         -2.0986   -2.9054    1.4140 C.ar      1 ACP         0.5729
     32 HOG2       -5.0415    4.2977   -4.2854 H         1 ACP         0.4440
     33 HOG3       -3.5361    1.9564   -3.5732 H         1 ACP         0.4440
     34 H3B1       -1.4473    5.0736   -3.7391 H         1 ACP         0.1084
     35 H3B2       -2.1577    6.0776   -2.4784 H         1 ACP         0.1084
     36 H5'1       -1.7769    2.7852    2.1386 H         1 ACP         0.0281
     37 H5'2       -1.1652    2.0544    0.6320 H         1 ACP         0.0281
     38 H4'         0.0403    1.7078    3.4343 H         1 ACP         0.1082
     39 H3'         1.5906    1.4859    1.1353 H         1 ACP         0.0650
     40 HO3'        2.6839   -0.1150    2.2479 H         1 ACP         0.4300
     41 H2'        -0.0017    0.0018    0.0005 H         1 ACP         0.0785
     42 HO2'        2.0953   -0.9375    0.0709 H         1 ACP         0.4275
     43 H1'        -0.1998   -1.6319    2.6178 H         1 ACP         0.1009
     44 H8         -2.4576   -0.0639   -0.0831 H         1 ACP         0.1067
     45 HN61       -5.2371   -3.9234   -0.8448 H         1 ACP         0.4213
     46 HN62       -5.2909   -5.5485   -0.2160 H         1 ACP         0.4213
     47 H2         -1.8433   -5.7650    2.8259 H         1 ACP         0.0365
@<TRIPOS>BOND
     1    1    2 2
     2    1    3 1
     3    1    4 1
     4    1    8 1
     5    3   32 1
     6    4   33 1
     7    5    6 2
     8    5    7 1
     9    5    8 1
    10    5   12 1
    11    8   34 1
    12    8   35 1
    13    9   10 2
    14    9   11 1
    15    9   12 1
    16    9   13 1
    17   13   14 1
    18   14   15 1
    19   14   36 1
    20   14   37 1
    21   15   16 1
    22   15   17 1
    23   15   38 1
    24   16   21 1
    25   17   18 1
    26   17   19 1
    27   17   39 1
    28   18   40 1
    29   19   20 1
    30   19   21 1
    31   19   41 1
    32   20   42 1
    33   21   22 1
    34   21   43 1
    35   22   23 ar
    36   22   31 ar
    37   23   24 ar
    38   23   44 1
    39   24   25 ar
    40   25   26 ar
    41   25   31 ar
    42   26   27 1
    43   26   28 ar
    44   27   45 1
    45   27   46 1
    46   28   29 ar
    47   29   30 ar
    48   29   47 1
    49   30   31 ar
@<TRIPOS>SUBSTRUCTURE
     1 ACP         1 GROUP 0 A     ****
@<TRIPOS>MOLECULE
[[5-(6-aminopurin-9-yl)-3,4-dihydroxy-tetrahydrofuran-2-yl]methoxy-oxido-phosphoryl]oxy-(phosphonomethyl)phosphinate
   47    49     1     0     0
SMALL
USER_CHARGES

@<TRIPOS>ATOM
      1 PG         -4.8262    5.9712    1.9636 P.3       1 ACP         1.6478
      2 O1G        -5.9867    6.7911    2.4414 O.2       1 ACP        -0.9103
      3 O2G        -5.1244    5.0219    0.6908 O.3       1 ACP        -0.7989
      4 O3G        -4.1981    4.9580    3.0538 O.3       1 ACP        -0.7989
      5 PB         -1.8375    6.1739    0.7989 P.3       1 ACP         1.4947
      6 O1B        -0.8896    7.3009    0.4597 O.co2     1 ACP        -0.8554
      7 O2B        -2.2309    5.1191   -0.2091 O.co2     1 ACP        -0.8554
      8 C3B        -3.3971    6.9409    1.4315 C.3       1 ACP        -0.6550
      9 PA          0.0332    4.7082    2.5761 P.3       1 ACP         1.5921
     10 O1A        -0.1148    4.1078    3.9574 O.co2     1 ACP        -0.8561
     11 O2A         1.1835    5.6391    2.2595 O.co2     1 ACP        -0.8561
     12 O3A        -1.3627    5.4617    2.1868 O.3       1 ACP        -0.8166
     13 O5'         0.0182    3.5132    1.4596 O.3       1 ACP        -0.5737
     14 C5'        -0.8811    2.4285    1.6206 C.3       1 ACP         0.2197
     15 C4'        -0.1994    1.3333    2.4288 C.3       1 ACP         0.0944
     16 O4'        -1.1285    0.2356    2.5840 O.3       1 ACP        -0.4017
     17 C3'         1.0324    0.7610    1.7344 C.3       1 ACP         0.0859
     18 O3'         1.9175    0.2377    2.7247 O.3       1 ACP        -0.5941
     19 C2'         0.4468   -0.3802    0.9263 C.3       1 ACP         0.0924
     20 O2'         1.3993   -1.3703    0.5961 O.3       1 ACP        -0.5928
     21 C1'        -0.6159   -0.9100    1.8769 C.3       1 ACP         0.3967
     22 N9         -1.7127   -1.6108    1.2130 N.pl3     1 ACP        -0.6763
     23 C8         -2.8641   -1.0399    0.7392 C.ar      1 ACP         0.5586
     24 N7         -3.6659   -1.9257    0.1858 N.2       1 ACP        -0.5795
     25 C5         -3.0053   -3.1223    0.3069 C.ar      1 ACP        -0.2116
     26 C6         -3.3321   -4.4178   -0.0813 C.ar      1 ACP         0.7185
     27 N6         -4.5476   -4.6866   -0.7335 N.pl3     1 ACP        -0.9442
     28 N1         -2.4608   -5.4225    0.1773 N.ar      1 ACP        -0.8040
     29 C2         -1.3053   -5.1020    0.8081 C.ar      1 ACP         0.6560
     30 N3         -0.8788   -3.8921    1.2315 N.ar      1 ACP        -0.7058
     31 C4         -1.7870   -2.9477    0.9438 C.ar      1 ACP         0.5729
     32 HOG2       -5.8180    4.3323    0.7646 H         1 ACP         0.4440
     33 HOG3       -4.7699    4.2603    3.4388 H         1 ACP         0.4440
     34 H3B1       -3.7338    7.6191    0.6393 H         1 ACP         0.1084
     35 H3B2       -3.0999    7.5653    2.2817 H         1 ACP         0.1084
     36 H5'1       -1.7769    2.7852    2.1386 H         1 ACP         0.0281
     37 H5'2       -1.1652    2.0544    0.6320 H         1 ACP         0.0281
     38 H4'         0.0403    1.7078    3.4343 H         1 ACP         0.1082
     39 H3'         1.5906    1.4859    1.1353 H         1 ACP         0.0650
     40 HO3'        2.6839   -0.1150    2.2479 H         1 ACP         0.4300
     41 H2'        -0.0017    0.0018    0.0005 H         1 ACP         0.0785
     42 HO2'        2.0953   -0.9375    0.0709 H         1 ACP         0.4275
     43 H1'        -0.1998   -1.6319    2.6178 H         1 ACP         0.1009
     44 H8         -3.0609    0.0200    0.8250 H         1 ACP         0.1067
     45 HN61       -5.2046   -3.9433   -0.8775 H         1 ACP         0.4213
     46 HN62       -4.7849   -5.6332   -0.9625 H         1 ACP         0.4213
     47 H2         -0.6318   -5.9307    0.9993 H         1 ACP         0.0365
@<TRIPOS>BOND
     1    1    2 2
     2    1    3 1
     3    1    4 1
     4    1    8 1
     5    3   32 1
     6    4   33 1
     7    5    6 2
     8    5    7 1
     9    5    8 1
    10    5   12 1
    11    8   34 1
    12    8   35 1
    13    9   10 2
    14    9   11 1
    15    9   12 1
    16    9   13 1
    17   13   14 1
    18   14   15 1
    19   14   36 1
    20   14   37 1
    21   15   16 1
    22   15   17 1
    23   15   38 1
    24   16   21 1
    25   17   18 1
    26   17   19 1
    27   17   39 1
    28   18   40 1
    29   19   20 1
    30   19   21 1
    31   19   41 1
    32   20   42 1
    33   21   22 1
    34   21   43 1
    35   22   23 ar
    36   22   31 ar
    37   23   24 ar
    38   23   44 1
    39   24   25 ar
    40   25   26 ar
    41   25   31 ar
    42   26   27 1
    43   26   28 ar
    44   27   45 1
    45   27   46 1
    46   28   29 ar
    47   29   30 ar
    48   29   47 1
    49   30   31 ar
@<TRIPOS>SUBSTRUCTURE
     1 ACP         1 GROUP 0 A     ****
@<TRIPOS>MOLECULE
[[5-(6-aminopurin-9-yl)-3,4-dihydroxy-tetrahydrofuran-2-yl]methoxy-oxido-phosphoryl]oxy-(phosphonomethyl)phosphinate
   47    49     1     0     0
SMALL
USER_CHARGES

@<TRIPOS>ATOM
      1 PG         -0.4064    2.5989   -3.0595 P.3       1 ACP         1.6478
      2 O1G        -0.2989    1.8239   -1.7808 O.2       1 ACP        -0.9103
      3 O2G        -1.9091    2.8334   -3.6046 O.3       1 ACP        -0.7989
      4 O3G         0.3607    1.9546   -4.3268 O.3       1 ACP        -0.7989
      5 PB         -0.3599    5.5573   -1.8042 P.3       1 ACP         1.4947
      6 O1B        -1.8216    5.7743   -2.1206 O.co2     1 ACP        -0.8554
      7 O2B         0.6410    6.6894   -1.7966 O.co2     1 ACP        -0.8554
      8 C3B         0.2700    4.2725   -2.9762 C.3       1 ACP        -0.6550
      9 PA         -0.7382    5.0055    1.0868 P.3       1 ACP         1.5921
     10 O1A        -2.2516    5.0177    1.0865 O.co2     1 ACP        -0.8561
     11 O2A         0.0419    6.1870    1.6208 O.co2     1 ACP        -0.8561
     12 O3A        -0.2227    4.6896   -0.4304 O.3       1 ACP        -0.8166
     13 O5'        -0.2059    3.6558    1.8419 O.3       1 ACP        -0.5737
     14 C5'        -0.8811    2.4285    1.6206 C.3       1 ACP         0.2197
     15 C4'        -0.1994    1.3333    2.4288 C.3       1 ACP         0.0944
     16 O4'        -1.1285    0.2356    2.5840 O.3       1 ACP        -0.4017
     17 C3'         1.0324    0.7610    1.7344 C.3       1 ACP         0.0859
     18 O3'         1.9175    0.2377    2.7247 O.3       1 ACP        -0.5941
     19 C2'         0.4468   -0.3802    0.9263 C.3       1 ACP         0.0924
     20 O2'         1.3993   -1.3703    0.5961 O.3       1 ACP        -0.5928
     21 C1'        -0.6159   -0.9100    1.8769 C.3       1 ACP         0.3967
     22 N9         -1.7127   -1.6108    1.2130 N.pl3     1 ACP        -0.6763
     23 C8         -2.8641   -1.0399    0.7392 C.ar      1 ACP         0.5586
     24 N7         -3.6659   -1.9257    0.1858 N.2       1 ACP        -0.5795
     25 C5         -3.0053   -3.1223    0.3069 C.ar      1 ACP        -0.2116
     26 C6         -3.3321   -4.4178   -0.0813 C.ar      1 ACP         0.7185
     27 N6         -4.5476   -4.6866   -0.7335 N.pl3     1 ACP        -0.9442
     28 N1         -2.4608   -5.4225    0.1773 N.ar      1 ACP        -0.8040
     29 C2         -1.3053   -5.1020    0.8081 C.ar      1 ACP         0.6560
     30 N3         -0.8788   -3.8921    1.2315 N.ar      1 ACP        -0.7058
     31 C4         -1.7870   -2.9477    0.9438 C.ar      1 ACP         0.5729
     32 HOG2       -2.4651    2.0534   -3.8156 H         1 ACP         0.4440
     33 HOG3        0.1037    1.0588   -4.6326 H         1 ACP         0.4440
     34 H3B1        1.3426    4.1861   -2.7692 H         1 ACP         0.1084
     35 H3B2        0.1720    4.7073   -3.9775 H         1 ACP         0.1084
     36 H5'1       -1.9255    2.5383    1.9294 H         1 ACP         0.0281
     37 H5'2       -0.8472    2.1934    0.5521 H         1 ACP         0.0281
     38 H4'         0.0403    1.7078    3.4343 H         1 ACP         0.1082
     39 H3'         1.5906    1.4859    1.1353 H         1 ACP         0.0650
     40 HO3'        2.6839   -0.1150    2.2479 H         1 ACP         0.4300
     41 H2'        -0.0017    0.0018    0.0005 H         1 ACP         0.0785
     42 HO2'        2.0953   -0.9375    0.0709 H         1 ACP         0.4275
     43 H1'        -0.1998   -1.6319    2.6178 H         1 ACP         0.1009
     44 H8         -3.0609    0.0200    0.8250 H         1 ACP         0.1067
     45 HN61       -5.2046   -3.9433   -0.8775 H         1 ACP         0.4213
     46 HN62       -4.7849   -5.6332   -0.9625 H         1 ACP         0.4213
     47 H2         -0.6318   -5.9307    0.9993 H         1 ACP         0.0365
@<TRIPOS>BOND
     1    1    2 2
     2    1    3 1
     3    1    4 1
     4    1    8 1
     5    3   32 1
     6    4   33 1
     7    5    6 2
     8    5    7 1
     9    5    8 1
    10    5   12 1
    11    8   34 1
    12    8   35 1
    13    9   10 2
    14    9   11 1
    15    9   12 1
    16    9   13 1
    17   13   14 1
    18   14   15 1
    19   14   36 1
    20   14   37 1
    21   15   16 1
    22   15   17 1
    23   15   38 1
    24   16   21 1
    25   17   18 1
    26   17   19 1
    27   17   39 1
    28   18   40 1
    29   19   20 1
    30   19   21 1
    31   19   41 1
    32   20   42 1
    33   21   22 1
    34   21   43 1
    35   22   23 ar
    36   22   31 ar
    37   23   24 ar
    38   23   44 1
    39   24   25 ar
    40   25   26 ar
    41   25   31 ar
    42   26   27 1
    43   26   28 ar
    44   27   45 1
    45   27   46 1
    46   28   29 ar
    47   29   30 ar
    48   29   47 1
    49   30   31 ar
@<TRIPOS>SUBSTRUCTURE
     1 ACP         1 GROUP 0 A     ****
@<TRIPOS>MOLECULE
[[5-(6-aminopurin-9-yl)-3,4-dihydroxy-tetrahydrofuran-2-yl]methoxy-oxido-phosphoryl]oxy-(phosphonomethyl)phosphinate
   47    49     1     0     0
SMALL
USER_CHARGES

@<TRIPOS>ATOM
      1 PG          2.9248    4.8911   -4.3607 P.3       1 ACP         1.6478
      2 O1G         2.1294    3.8578   -3.6210 O.2       1 ACP        -0.9103
      3 O2G         2.3174    6.3879   -4.3293 O.3       1 ACP        -0.7989
      4 O3G         3.1414    4.6024   -5.9353 O.3       1 ACP        -0.7989
      5 PB          5.8607    3.7526   -3.7171 P.3       1 ACP         1.4947
      6 O1B         7.1343    4.3267   -3.1411 O.co2     1 ACP        -0.8554
      7 O2B         5.8194    3.0730   -5.0662 O.co2     1 ACP        -0.8554
      8 C3B         4.6099    5.1147   -3.7475 C.3       1 ACP        -0.6550
      9 PA          5.6601    1.4686   -1.8331 P.3       1 ACP         1.5921
     10 O1A         6.8273    1.8491   -0.9479 O.co2     1 ACP        -0.8561
     11 O2A         5.7948    0.3565   -2.8504 O.co2     1 ACP        -0.8561
     12 O3A         5.1344    2.8104   -2.6017 O.3       1 ACP        -0.8166
     13 O5'         4.3514    1.1573   -0.9028 O.3       1 ACP        -0.5737
     14 C5'         4.0922    1.9801    0.2227 C.3       1 ACP         0.2197
     15 C4'         2.5944    2.0310    0.4653 C.3       1 ACP         0.0944
     16 O4'         1.9327    2.5740   -0.6889 O.3       1 ACP        -0.4017
     17 C3'         1.9685    0.6634    0.6767 C.3       1 ACP         0.0859
     18 O3'         2.1425    0.1975    1.9977 O.3       1 ACP        -0.5941
     19 C2'         0.5176    0.9128    0.3099 C.3       1 ACP         0.0924
     20 O2'        -0.2103    1.4454    1.4152 O.3       1 ACP        -0.5928
     21 C1'         0.6219    1.9765   -0.7844 C.3       1 ACP         0.3967
     22 N9          0.4237    1.4496   -2.1357 N.pl3     1 ACP        -0.6763
     23 C8          1.4026    0.9717   -2.9660 C.ar      1 ACP         0.5586
     24 N7          0.9183    0.5619   -4.1197 N.2       1 ACP        -0.5795
     25 C5         -0.4330    0.7845   -4.0331 C.ar      1 ACP        -0.2116
     26 C6         -1.4794    0.5615   -4.9225 C.ar      1 ACP         0.7185
     27 N6         -1.2378    0.0044   -6.1899 N.pl3     1 ACP        -0.9442
     28 N1         -2.7406    0.8885   -4.5512 N.ar      1 ACP        -0.8040
     29 C2         -2.9113    1.4216   -3.3172 C.ar      1 ACP         0.6560
     30 N3         -1.9824    1.6843   -2.3721 N.ar      1 ACP        -0.7058
     31 C4         -0.7613    1.3370   -2.8054 C.ar      1 ACP         0.5729
     32 HOG2        1.4229    6.5454   -4.6994 H         1 ACP         0.4440
     33 HOG3        2.3552    4.5247   -6.5167 H         1 ACP         0.4440
     34 H3B1        5.0689    5.9227   -4.3283 H         1 ACP         0.1084
     35 H3B2        4.5295    5.4701   -2.7139 H         1 ACP         0.1084
     36 H5'1        4.6070    1.5616    1.0933 H         1 ACP         0.0281
     37 H5'2        4.4825    2.9835    0.0251 H         1 ACP         0.0281
     38 H4'         2.3751    2.7029    1.3156 H         1 ACP         0.1082
     39 H3'         2.4336   -0.1217   -0.0015 H         1 ACP         0.0650
     40 HO3'        1.7160   -0.6716    2.0397 H         1 ACP         0.4300
     41 H2'         0.0316    0.0155   -0.0339 H         1 ACP         0.0785
     42 HO2'       -0.1608    0.7921    2.1351 H         1 ACP         0.4275
     43 H1'        -0.1474    2.7798   -0.6651 H         1 ACP         0.1009
     44 H8          2.4442    0.9470   -2.6763 H         1 ACP         0.1067
     45 HN61       -0.2955   -0.1901   -6.4713 H         1 ACP         0.4213
     46 HN62       -1.9987   -0.1045   -6.8334 H         1 ACP         0.4213
     47 H2         -3.9335    1.6716   -3.0534 H         1 ACP         0.0365
@<TRIPOS>BOND
     1    1    2 2
     2    1    3 1
     3    1    4 1
     4    1    8 1
     5    3   32 1
     6    4   33 1
     7    5    6 2
     8    5    7 1
     9    5    8 1
    10    5   12 1
    11    8   34 1
    12    8   35 1
    13    9   10 2
    14    9   11 1
    15    9   12 1
    16    9   13 1
    17   13   14 1
    18   14   15 1
    19   14   36 1
    20   14   37 1
    21   15   16 1
    22   15   17 1
    23   15   38 1
    24   16   21 1
    25   17   18 1
    26   17   19 1
    27   17   39 1
    28   18   40 1
    29   19   20 1
    30   19   21 1
    31   19   41 1
    32   20   42 1
    33   21   22 1
    34   21   43 1
    35   22   23 ar
    36   22   31 ar
    37   23   24 ar
    38   23   44 1
    39   24   25 ar
    40   25   26 ar
    41   25   31 ar
    42   26   27 1
    43   26   28 ar
    44   27   45 1
    45   27   46 1
    46   28   29 ar
    47   29   30 ar
    48   29   47 1
    49   30   31 ar
@<TRIPOS>SUBSTRUCTURE
     1 ACP         1 GROUP 0 A     ****
@<TRIPOS>MOLECULE
[[5-(6-aminopurin-9-yl)-3,4-dihydroxy-tetrahydrofuran-2-yl]methoxy-oxido-phosphoryl]oxy-(phosphonomethyl)phosphinate
   47    49     1     0     0
SMALL
USER_CHARGES

@<TRIPOS>ATOM
      1 PG         -2.5445    7.1196   -0.2942 P.3       1 ACP         1.6478
      2 O1G        -2.8178    5.6633   -0.5216 O.2       1 ACP        -0.9103
      3 O2G        -3.7823    7.9742    0.2956 O.3       1 ACP        -0.7989
      4 O3G        -2.0975    7.9534   -1.6036 O.3       1 ACP        -0.7989
      5 PB         -1.2569    6.8883    2.6416 P.3       1 ACP         1.4947
      6 O1B        -2.4715    7.5171    3.2841 O.co2     1 ACP        -0.8554
      7 O2B         0.1347    7.0610    3.2048 O.co2     1 ACP        -0.8554
      8 C3B        -1.2131    7.4538    0.8811 C.3       1 ACP        -0.6550
      9 PA         -1.9154    4.0917    3.3841 P.3       1 ACP         1.5921
     10 O1A        -3.2739    4.3706    3.9902 O.co2     1 ACP        -0.8561
     11 O2A        -0.7157    3.8308    4.2687 O.co2     1 ACP        -0.8561
     12 O3A        -1.5461    5.3085    2.3591 O.3       1 ACP        -0.8166
     13 O5'        -2.0402    2.8619    2.3132 O.3       1 ACP        -0.5737
     14 C5'        -0.8811    2.4285    1.6206 C.3       1 ACP         0.2197
     15 C4'        -0.1994    1.3333    2.4288 C.3       1 ACP         0.0944
     16 O4'        -1.1285    0.2356    2.5840 O.3       1 ACP        -0.4017
     17 C3'         1.0324    0.7610    1.7344 C.3       1 ACP         0.0859
     18 O3'         1.9175    0.2377    2.7247 O.3       1 ACP        -0.5941
     19 C2'         0.4468   -0.3802    0.9263 C.3       1 ACP         0.0924
     20 O2'         1.3993   -1.3703    0.5961 O.3       1 ACP        -0.5928
     21 C1'        -0.6159   -0.9100    1.8769 C.3       1 ACP         0.3967
     22 N9         -1.7127   -1.6108    1.2130 N.pl3     1 ACP        -0.6763
     23 C8         -2.8641   -1.0399    0.7392 C.ar      1 ACP         0.5586
     24 N7         -3.6659   -1.9257    0.1858 N.2       1 ACP        -0.5795
     25 C5         -3.0053   -3.1223    0.3069 C.ar      1 ACP        -0.2116
     26 C6         -3.3321   -4.4178   -0.0813 C.ar      1 ACP         0.7185
     27 N6         -4.5476   -4.6866   -0.7335 N.pl3     1 ACP        -0.9442
     28 N1         -2.4608   -5.4225    0.1773 N.ar      1 ACP        -0.8040
     29 C2         -1.3053   -5.1020    0.8081 C.ar      1 ACP         0.6560
     30 N3         -0.8788   -3.8921    1.2315 N.ar      1 ACP        -0.7058
     31 C4         -1.7870   -2.9477    0.9438 C.ar      1 ACP         0.5729
     32 HOG2       -4.6151    8.0222   -0.2205 H         1 ACP         0.4440
     33 HOG3       -2.7083    7.9985   -2.3696 H         1 ACP         0.4440
     34 H3B1       -0.2896    7.0390    0.4617 H         1 ACP         0.1084
     35 H3B2       -1.0861    8.5417    0.9195 H         1 ACP         0.1084
     36 H5'1       -1.1771    2.0504    0.6370 H         1 ACP         0.0281
     37 H5'2       -0.2083    3.2816    1.4878 H         1 ACP         0.0281
     38 H4'         0.0403    1.7078    3.4343 H         1 ACP         0.1082
     39 H3'         1.5906    1.4859    1.1353 H         1 ACP         0.0650
     40 HO3'        2.6839   -0.1150    2.2479 H         1 ACP         0.4300
     41 H2'        -0.0017    0.0018    0.0005 H         1 ACP         0.0785
     42 HO2'        2.0953   -0.9375    0.0709 H         1 ACP         0.4275
     43 H1'        -0.1998   -1.6319    2.6178 H         1 ACP         0.1009
     44 H8         -3.0609    0.0200    0.8250 H         1 ACP         0.1067
     45 HN61       -5.2046   -3.9433   -0.8775 H         1 ACP         0.4213
     46 HN62       -4.7849   -5.6332   -0.9625 H         1 ACP         0.4213
     47 H2         -0.6318   -5.9307    0.9993 H         1 ACP         0.0365
@<TRIPOS>BOND
     1    1    2 2
     2    1    3 1
     3    1    4 1
     4    1    8 1
     5    3   32 1
     6    4   33 1
     7    5    6 2
     8    5    7 1
     9    5    8 1
    10    5   12 1
    11    8   34 1
    12    8   35 1
    13    9   10 2
    14    9   11 1
    15    9   12 1
    16    9   13 1
    17   13   14 1
    18   14   15 1
    19   14   36 1
    20   14   37 1
    21   15   16 1
    22   15   17 1
    23   15   38 1
    24   16   21 1
    25   17   18 1
    26   17   19 1
    27   17   39 1
    28   18   40 1
    29   19   20 1
    30   19   21 1
    31   19   41 1
    32   20   42 1
    33   21   22 1
    34   21   43 1
    35   22   23 ar
    36   22   31 ar
    37   23   24 ar
    38   23   44 1
    39   24   25 ar
    40   25   26 ar
    41   25   31 ar
    42   26   27 1
    43   26   28 ar
    44   27   45 1
    45   27   46 1
    46   28   29 ar
    47   29   30 ar
    48   29   47 1
    49   30   31 ar
@<TRIPOS>SUBSTRUCTURE
     1 ACP         1 GROUP 0 A     ****
@<TRIPOS>MOLECULE
[[5-(6-aminopurin-9-yl)-3,4-dihydroxy-tetrahydrofuran-2-yl]methoxy-oxido-phosphoryl]oxy-(phosphonomethyl)phosphinate
   47    49     1     0     0
SMALL
USER_CHARGES

@<TRIPOS>ATOM
      1 PG          0.2657    6.3798   -1.2190 P.3       1 ACP         1.6478
      2 O1G         1.7570    6.5325   -1.2201 O.2       1 ACP        -0.9103
      3 O2G        -0.2769    4.8682   -1.0433 O.3       1 ACP        -0.7989
      4 O3G        -0.4851    6.9001   -2.5513 O.3       1 ACP        -0.7989
      5 PB         -0.2497    6.9669    1.8986 P.3       1 ACP         1.4947
      6 O1B        -1.1365    7.9052    2.6840 O.co2     1 ACP        -0.8554
      7 O2B         1.2495    6.9282    2.0846 O.co2     1 ACP        -0.8554
      8 C3B        -0.5748    7.2781    0.1047 C.3       1 ACP        -0.6550
      9 PA         -1.1366    4.4807    3.2544 P.3       1 ACP         1.5921
     10 O1A        -2.2266    5.1034    4.0998 O.co2     1 ACP        -0.8561
     11 O2A         0.1933    4.1013    3.8686 O.co2     1 ACP        -0.8561
     12 O3A        -0.8547    5.4545    1.9738 O.3       1 ACP        -0.8166
     13 O5'        -1.7337    3.1724    2.4754 O.3       1 ACP        -0.5737
     14 C5'        -0.8811    2.4285    1.6206 C.3       1 ACP         0.2197
     15 C4'        -0.1994    1.3333    2.4288 C.3       1 ACP         0.0944
     16 O4'        -1.1285    0.2356    2.5840 O.3       1 ACP        -0.4017
     17 C3'         1.0324    0.7610    1.7344 C.3       1 ACP         0.0859
     18 O3'         1.9175    0.2377    2.7247 O.3       1 ACP        -0.5941
     19 C2'         0.4468   -0.3802    0.9263 C.3       1 ACP         0.0924
     20 O2'         1.3993   -1.3703    0.5961 O.3       1 ACP        -0.5928
     21 C1'        -0.6159   -0.9100    1.8769 C.3       1 ACP         0.3967
     22 N9         -1.7127   -1.6108    1.2130 N.pl3     1 ACP        -0.6763
     23 C8         -2.8641   -1.0399    0.7392 C.ar      1 ACP         0.5586
     24 N7         -3.6659   -1.9257    0.1858 N.2       1 ACP        -0.5795
     25 C5         -3.0053   -3.1223    0.3069 C.ar      1 ACP        -0.2116
     26 C6         -3.3321   -4.4178   -0.0813 C.ar      1 ACP         0.7185
     27 N6         -4.5476   -4.6866   -0.7335 N.pl3     1 ACP        -0.9442
     28 N1         -2.4608   -5.4225    0.1773 N.ar      1 ACP        -0.8040
     29 C2         -1.3053   -5.1020    0.8081 C.ar      1 ACP         0.6560
     30 N3         -0.8788   -3.8921    1.2315 N.ar      1 ACP        -0.7058
     31 C4         -1.7870   -2.9477    0.9438 C.ar      1 ACP         0.5729
     32 HOG2       -0.0239    4.1924   -1.7077 H         1 ACP         0.4440
     33 HOG3       -0.2593    6.4919   -3.4141 H         1 ACP         0.4440
     34 H3B1       -0.3846    8.3465   -0.0478 H         1 ACP         0.1084
     35 H3B2       -1.6504    7.1220   -0.0359 H         1 ACP         0.1084
     36 H5'1       -1.4802    1.9929    0.8148 H         1 ACP         0.0281
     37 H5'2       -0.1370    3.1043    1.1873 H         1 ACP         0.0281
     38 H4'         0.0403    1.7078    3.4343 H         1 ACP         0.1082
     39 H3'         1.5906    1.4859    1.1353 H         1 ACP         0.0650
     40 HO3'        2.6839   -0.1150    2.2479 H         1 ACP         0.4300
     41 H2'        -0.0017    0.0018    0.0005 H         1 ACP         0.0785
     42 HO2'        2.0953   -0.9375    0.0709 H         1 ACP         0.4275
     43 H1'        -0.1998   -1.6319    2.6178 H         1 ACP         0.1009
     44 H8         -3.0609    0.0200    0.8250 H         1 ACP         0.1067
     45 HN61       -5.2046   -3.9433   -0.8775 H         1 ACP         0.4213
     46 HN62       -4.7849   -5.6332   -0.9625 H         1 ACP         0.4213
     47 H2         -0.6318   -5.9307    0.9993 H         1 ACP         0.0365
@<TRIPOS>BOND
     1    1    2 2
     2    1    3 1
     3    1    4 1
     4    1    8 1
     5    3   32 1
     6    4   33 1
     7    5    6 2
     8    5    7 1
     9    5    8 1
    10    5   12 1
    11    8   34 1
    12    8   35 1
    13    9   10 2
    14    9   11 1
    15    9   12 1
    16    9   13 1
    17   13   14 1
    18   14   15 1
    19   14   36 1
    20   14   37 1
    21   15   16 1
    22   15   17 1
    23   15   38 1
    24   16   21 1
    25   17   18 1
    26   17   19 1
    27   17   39 1
    28   18   40 1
    29   19   20 1
    30   19   21 1
    31   19   41 1
    32   20   42 1
    33   21   22 1
    34   21   43 1
    35   22   23 ar
    36   22   31 ar
    37   23   24 ar
    38   23   44 1
    39   24   25 ar
    40   25   26 ar
    41   25   31 ar
    42   26   27 1
    43   26   28 ar
    44   27   45 1
    45   27   46 1
    46   28   29 ar
    47   29   30 ar
    48   29   47 1
    49   30   31 ar
@<TRIPOS>SUBSTRUCTURE
     1 ACP         1 GROUP 0 A     ****
@<TRIPOS>MOLECULE
[[5-(6-aminopurin-9-yl)-3,4-dihydroxy-tetrahydrofuran-2-yl]methoxy-oxido-phosphoryl]oxy-(phosphonomethyl)phosphinate
   47    49     1     0     0
SMALL
USER_CHARGES

@<TRIPOS>ATOM
      1 PG         -6.3966    1.7864    1.5186 P.3       1 ACP         1.6478
      2 O1G        -5.2943    0.7984    1.7559 O.2       1 ACP        -0.9103
      3 O2G        -7.3472    2.0843    2.7905 O.3       1 ACP        -0.7989
      4 O3G        -7.4395    1.3933    0.3492 O.3       1 ACP        -0.7989
      5 PB         -4.8299    3.7419   -0.4942 P.3       1 ACP         1.4947
      6 O1B        -4.5564    5.2268   -0.5559 O.co2     1 ACP        -0.8554
      7 O2B        -5.4932    2.9955   -1.6285 O.co2     1 ACP        -0.8554
      8 C3B        -5.8309    3.4315    1.0298 C.3       1 ACP        -0.6550
      9 PA         -1.9976    2.8864   -0.7224 P.3       1 ACP         1.5921
     10 O1A        -1.3773    4.2659   -0.6697 O.co2     1 ACP        -0.8561
     11 O2A        -2.1168    2.1447   -2.0361 O.co2     1 ACP        -0.8561
     12 O3A        -3.4767    2.9572   -0.0335 O.3       1 ACP        -0.8166
     13 O5'        -1.2434    1.9101    0.3513 O.3       1 ACP        -0.5737
     14 C5'        -0.8811    2.4285    1.6206 C.3       1 ACP         0.2197
     15 C4'        -0.1994    1.3333    2.4288 C.3       1 ACP         0.0944
     16 O4'        -1.1285    0.2356    2.5840 O.3       1 ACP        -0.4017
     17 C3'         1.0324    0.7610    1.7344 C.3       1 ACP         0.0859
     18 O3'         1.9175    0.2377    2.7247 O.3       1 ACP        -0.5941
     19 C2'         0.4468   -0.3802    0.9263 C.3       1 ACP         0.0924
     20 O2'         1.3993   -1.3703    0.5961 O.3       1 ACP        -0.5928
     21 C1'        -0.6159   -0.9100    1.8769 C.3       1 ACP         0.3967
     22 N9         -1.7127   -1.6108    1.2130 N.pl3     1 ACP        -0.6763
     23 C8         -2.8641   -1.0399    0.7392 C.ar      1 ACP         0.5586
     24 N7         -3.6659   -1.9257    0.1858 N.2       1 ACP        -0.5795
     25 C5         -3.0053   -3.1223    0.3069 C.ar      1 ACP        -0.2116
     26 C6         -3.3321   -4.4178   -0.0813 C.ar      1 ACP         0.7185
     27 N6         -4.5476   -4.6866   -0.7335 N.pl3     1 ACP        -0.9442
     28 N1         -2.4608   -5.4225    0.1773 N.ar      1 ACP        -0.8040
     29 C2         -1.3053   -5.1020    0.8081 C.ar      1 ACP         0.6560
     30 N3         -0.8788   -3.8921    1.2315 N.ar      1 ACP        -0.7058
     31 C4         -1.7870   -2.9477    0.9438 C.ar      1 ACP         0.5729
     32 HOG2       -7.8484    1.3434    3.1929 H         1 ACP         0.4440
     33 HOG3       -7.9527    0.5613    0.4301 H         1 ACP         0.4440
     34 H3B1       -6.7156    4.0714    0.9361 H         1 ACP         0.1084
     35 H3B2       -5.2379    3.8263    1.8627 H         1 ACP         0.1084
     36 H5'1       -0.2035    3.2759    1.4765 H         1 ACP         0.0281
     37 H5'2       -1.7842    2.7761    2.1320 H         1 ACP         0.0281
     38 H4'         0.0403    1.7078    3.4343 H         1 ACP         0.1082
     39 H3'         1.5906    1.4859    1.1353 H         1 ACP         0.0650
     40 HO3'        2.6839   -0.1150    2.2479 H         1 ACP         0.4300
     41 H2'        -0.0017    0.0018    0.0005 H         1 ACP         0.0785
     42 HO2'        2.0953   -0.9375    0.0709 H         1 ACP         0.4275
     43 H1'        -0.1998   -1.6319    2.6178 H         1 ACP         0.1009
     44 H8         -3.0609    0.0200    0.8250 H         1 ACP         0.1067
     45 HN61       -5.2046   -3.9433   -0.8775 H         1 ACP         0.4213
     46 HN62       -4.7849   -5.6332   -0.9625 H         1 ACP         0.4213
     47 H2         -0.6318   -5.9307    0.9993 H         1 ACP         0.0365
@<TRIPOS>BOND
     1    1    2 2
     2    1    3 1
     3    1    4 1
     4    1    8 1
     5    3   32 1
     6    4   33 1
     7    5    6 2
     8    5    7 1
     9    5    8 1
    10    5   12 1
    11    8   34 1
    12    8   35 1
    13    9   10 2
    14    9   11 1
    15    9   12 1
    16    9   13 1
    17   13   14 1
    18   14   15 1
    19   14   36 1
    20   14   37 1
    21   15   16 1
    22   15   17 1
    23   15   38 1
    24   16   21 1
    25   17   18 1
    26   17   19 1
    27   17   39 1
    28   18   40 1
    29   19   20 1
    30   19   21 1
    31   19   41 1
    32   20   42 1
    33   21   22 1
    34   21   43 1
    35   22   23 ar
    36   22   31 ar
    37   23   24 ar
    38   23   44 1
    39   24   25 ar
    40   25   26 ar
    41   25   31 ar
    42   26   27 1
    43   26   28 ar
    44   27   45 1
    45   27   46 1
    46   28   29 ar
    47   29   30 ar
    48   29   47 1
    49   30   31 ar
@<TRIPOS>SUBSTRUCTURE
     1 ACP         1 GROUP 0 A     ****
@<TRIPOS>MOLECULE
[[5-(6-aminopurin-9-yl)-3,4-dihydroxy-tetrahydrofuran-2-yl]methoxy-oxido-phosphoryl]oxy-(phosphonomethyl)phosphinate
   47    49     1     0     0
SMALL
USER_CHARGES

@<TRIPOS>ATOM
      1 PG          5.3929    4.2459   -4.4265 P.3       1 ACP         1.6478
      2 O1G         4.7914    3.9584   -5.7692 O.2       1 ACP        -0.9103
      3 O2G         4.3788    4.1353   -3.1737 O.3       1 ACP        -0.7989
      4 O3G         6.0440    5.7148   -4.2591 O.3       1 ACP        -0.7989
      5 PB          7.6575    3.2802   -2.3604 P.3       1 ACP         1.4947
      6 O1B         8.2845    4.6545   -2.3197 O.co2     1 ACP        -0.8554
      7 O2B         8.4700    2.0171   -2.1931 O.co2     1 ACP        -0.8554
      8 C3B         6.7456    3.1407   -3.9635 C.3       1 ACP        -0.6550
      9 PA          6.2485    3.4955    0.2424 P.3       1 ACP         1.5921
     10 O1A         6.5918    4.9420    0.5255 O.co2     1 ACP        -0.8561
     11 O2A         6.9748    2.3768    0.9573 O.co2     1 ACP        -0.8561
     12 O3A         6.3651    3.2411   -1.3667 O.3       1 ACP        -0.8166
     13 O5'         4.6404    3.2702    0.4379 O.3       1 ACP        -0.5737
     14 C5'         4.0922    1.9801    0.2227 C.3       1 ACP         0.2197
     15 C4'         2.5944    2.0310    0.4653 C.3       1 ACP         0.0944
     16 O4'         1.9327    2.5740   -0.6889 O.3       1 ACP        -0.4017
     17 C3'         1.9685    0.6634    0.6767 C.3       1 ACP         0.0859
     18 O3'         2.1425    0.1975    1.9977 O.3       1 ACP        -0.5941
     19 C2'         0.5176    0.9128    0.3099 C.3       1 ACP         0.0924
     20 O2'        -0.2103    1.4454    1.4152 O.3       1 ACP        -0.5928
     21 C1'         0.6219    1.9765   -0.7844 C.3       1 ACP         0.3967
     22 N9          0.4237    1.4496   -2.1357 N.pl3     1 ACP        -0.6763
     23 C8          1.4026    0.9717   -2.9660 C.ar      1 ACP         0.5586
     24 N7          0.9183    0.5619   -4.1197 N.2       1 ACP        -0.5795
     25 C5         -0.4330    0.7845   -4.0331 C.ar      1 ACP        -0.2116
     26 C6         -1.4794    0.5615   -4.9225 C.ar      1 ACP         0.7185
     27 N6         -1.2378    0.0044   -6.1899 N.pl3     1 ACP        -0.9442
     28 N1         -2.7406    0.8885   -4.5512 N.ar      1 ACP        -0.8040
     29 C2         -2.9113    1.4216   -3.3172 C.ar      1 ACP         0.6560
     30 N3         -1.9824    1.6843   -2.3721 N.ar      1 ACP        -0.7058
     31 C4         -0.7613    1.3370   -2.8054 C.ar      1 ACP         0.5729
     32 HOG2        3.5890    4.7164   -3.1490 H         1 ACP         0.4440
     33 HOG3        5.4735    6.5038   -4.3776 H         1 ACP         0.4440
     34 H3B1        6.3606    2.1152   -3.9947 H         1 ACP         0.1084
     35 H3B2        7.5064    3.2203   -4.7483 H         1 ACP         0.1084
     36 H5'1        4.3030    1.6732   -0.8066 H         1 ACP         0.0281
     37 H5'2        4.5679    1.2741    0.9106 H         1 ACP         0.0281
     38 H4'         2.3751    2.7029    1.3156 H         1 ACP         0.1082
     39 H3'         2.4336   -0.1217   -0.0015 H         1 ACP         0.0650
     40 HO3'        1.7160   -0.6716    2.0397 H         1 ACP         0.4300
     41 H2'         0.0316    0.0155   -0.0339 H         1 ACP         0.0785
     42 HO2'       -0.1608    0.7921    2.1351 H         1 ACP         0.4275
     43 H1'        -0.1474    2.7798   -0.6651 H         1 ACP         0.1009
     44 H8          2.4442    0.9470   -2.6763 H         1 ACP         0.1067
     45 HN61       -0.2955   -0.1901   -6.4713 H         1 ACP         0.4213
     46 HN62       -1.9987   -0.1045   -6.8334 H         1 ACP         0.4213
     47 H2         -3.9335    1.6716   -3.0534 H         1 ACP         0.0365
@<TRIPOS>BOND
     1    1    2 2
     2    1    3 1
     3    1    4 1
     4    1    8 1
     5    3   32 1
     6    4   33 1
     7    5    6 2
     8    5    7 1
     9    5    8 1
    10    5   12 1
    11    8   34 1
    12    8   35 1
    13    9   10 2
    14    9   11 1
    15    9   12 1
    16    9   13 1
    17   13   14 1
    18   14   15 1
    19   14   36 1
    20   14   37 1
    21   15   16 1
    22   15   17 1
    23   15   38 1
    24   16   21 1
    25   17   18 1
    26   17   19 1
    27   17   39 1
    28   18   40 1
    29   19   20 1
    30   19   21 1
    31   19   41 1
    32   20   42 1
    33   21   22 1
    34   21   43 1
    35   22   23 ar
    36   22   31 ar
    37   23   24 ar
    38   23   44 1
    39   24   25 ar
    40   25   26 ar
    41   25   31 ar
    42   26   27 1
    43   26   28 ar
    44   27   45 1
    45   27   46 1
    46   28   29 ar
    47   29   30 ar
    48   29   47 1
    49   30   31 ar
@<TRIPOS>SUBSTRUCTURE
     1 ACP         1 GROUP 0 A     ****
@<TRIPOS>MOLECULE
[[5-(6-aminopurin-9-yl)-3,4-dihydroxy-tetrahydrofuran-2-yl]methoxy-oxido-phosphoryl]oxy-(phosphonomethyl)phosphinate
   47    49     1     0     0
SMALL
USER_CHARGES

@<TRIPOS>ATOM
      1 PG          4.0590    5.9795   -2.2595 P.3       1 ACP         1.6478
      2 O1G         3.4194    5.0957   -1.2314 O.2       1 ACP        -0.9103
      3 O2G         5.3862    6.7620   -1.7731 O.3       1 ACP        -0.7989
      4 O3G         3.1182    7.1554   -2.8443 O.3       1 ACP        -0.7989
      5 PB          5.8607    3.7526   -3.7171 P.3       1 ACP         1.4947
      6 O1B         7.1343    4.3267   -3.1411 O.co2     1 ACP        -0.8554
      7 O2B         5.8194    3.0730   -5.0662 O.co2     1 ACP        -0.8554
      8 C3B         4.6099    5.1147   -3.7475 C.3       1 ACP        -0.6550
      9 PA          5.6601    1.4686   -1.8331 P.3       1 ACP         1.5921
     10 O1A         6.8273    1.8491   -0.9479 O.co2     1 ACP        -0.8561
     11 O2A         5.7948    0.3565   -2.8504 O.co2     1 ACP        -0.8561
     12 O3A         5.1344    2.8104   -2.6017 O.3       1 ACP        -0.8166
     13 O5'         4.3514    1.1573   -0.9028 O.3       1 ACP        -0.5737
     14 C5'         4.0922    1.9801    0.2227 C.3       1 ACP         0.2197
     15 C4'         2.5944    2.0310    0.4653 C.3       1 ACP         0.0944
     16 O4'         1.9327    2.5740   -0.6889 O.3       1 ACP        -0.4017
     17 C3'         1.9685    0.6634    0.6767 C.3       1 ACP         0.0859
     18 O3'         2.1425    0.1975    1.9977 O.3       1 ACP        -0.5941
     19 C2'         0.5176    0.9128    0.3099 C.3       1 ACP         0.0924
     20 O2'        -0.2103    1.4454    1.4152 O.3       1 ACP        -0.5928
     21 C1'         0.6219    1.9765   -0.7844 C.3       1 ACP         0.3967
     22 N9          0.4237    1.4496   -2.1357 N.pl3     1 ACP        -0.6763
     23 C8          1.4026    0.9717   -2.9660 C.ar      1 ACP         0.5586
     24 N7          0.9183    0.5619   -4.1197 N.2       1 ACP        -0.5795
     25 C5         -0.4330    0.7845   -4.0331 C.ar      1 ACP        -0.2116
     26 C6         -1.4794    0.5615   -4.9225 C.ar      1 ACP         0.7185
     27 N6         -1.2378    0.0044   -6.1899 N.pl3     1 ACP        -0.9442
     28 N1         -2.7406    0.8885   -4.5512 N.ar      1 ACP        -0.8040
     29 C2         -2.9113    1.4216   -3.3172 C.ar      1 ACP         0.6560
     30 N3         -1.9824    1.6843   -2.3721 N.ar      1 ACP        -0.7058
     31 C4         -0.7613    1.3370   -2.8054 C.ar      1 ACP         0.5729
     32 HOG2        5.3219    7.3801   -1.0143 H         1 ACP         0.4440
     33 HOG3        2.7553    7.8251   -2.2264 H         1 ACP         0.4440
     34 H3B1        3.7230    4.6890   -4.2304 H         1 ACP         0.1084
     35 H3B2        5.0110    5.8739   -4.4286 H         1 ACP         0.1084
     36 H5'1        4.6070    1.5616    1.0933 H         1 ACP         0.0281
     37 H5'2        4.4825    2.9835    0.0251 H         1 ACP         0.0281
     38 H4'         2.3751    2.7029    1.3156 H         1 ACP         0.1082
     39 H3'         2.4336   -0.1217   -0.0015 H         1 ACP         0.0650
     40 HO3'        1.7160   -0.6716    2.0397 H         1 ACP         0.4300
     41 H2'         0.0316    0.0155   -0.0339 H         1 ACP         0.0785
     42 HO2'       -0.1608    0.7921    2.1351 H         1 ACP         0.4275
     43 H1'        -0.1474    2.7798   -0.6651 H         1 ACP         0.1009
     44 H8          2.4442    0.9470   -2.6763 H         1 ACP         0.1067
     45 HN61       -0.2955   -0.1901   -6.4713 H         1 ACP         0.4213
     46 HN62       -1.9987   -0.1045   -6.8334 H         1 ACP         0.4213
     47 H2         -3.9335    1.6716   -3.0534 H         1 ACP         0.0365
@<TRIPOS>BOND
     1    1    2 2
     2    1    3 1
     3    1    4 1
     4    1    8 1
     5    3   32 1
     6    4   33 1
     7    5    6 2
     8    5    7 1
     9    5    8 1
    10    5   12 1
    11    8   34 1
    12    8   35 1
    13    9   10 2
    14    9   11 1
    15    9   12 1
    16    9   13 1
    17   13   14 1
    18   14   15 1
    19   14   36 1
    20   14   37 1
    21   15   16 1
    22   15   17 1
    23   15   38 1
    24   16   21 1
    25   17   18 1
    26   17   19 1
    27   17   39 1
    28   18   40 1
    29   19   20 1
    30   19   21 1
    31   19   41 1
    32   20   42 1
    33   21   22 1
    34   21   43 1
    35   22   23 ar
    36   22   31 ar
    37   23   24 ar
    38   23   44 1
    39   24   25 ar
    40   25   26 ar
    41   25   31 ar
    42   26   27 1
    43   26   28 ar
    44   27   45 1
    45   27   46 1
    46   28   29 ar
    47   29   30 ar
    48   29   47 1
    49   30   31 ar
@<TRIPOS>SUBSTRUCTURE
     1 ACP         1 GROUP 0 A     ****
@<TRIPOS>MOLECULE
[[5-(6-aminopurin-9-yl)-3,4-dihydroxy-tetrahydrofuran-2-yl]methoxy-oxido-phosphoryl]oxy-(phosphonomethyl)phosphinate
   47    49     1     0     0
SMALL
USER_CHARGES

@<TRIPOS>ATOM
      1 PG         -4.2778    5.6087   -2.2837 P.3       1 ACP         1.6478
      2 O1G        -3.1986    6.5838   -1.9206 O.2       1 ACP        -0.9103
      3 O2G        -4.3403    5.1918   -3.8434 O.3       1 ACP        -0.7989
      4 O3G        -5.7850    6.0907   -1.9590 O.3       1 ACP        -0.7989
      5 PB         -4.2277    3.8513    0.4069 P.3       1 ACP         1.4947
      6 O1B        -4.1002    2.3803    0.7284 O.co2     1 ACP        -0.8554
      7 O2B        -5.3894    4.6862    0.8937 O.co2     1 ACP        -0.8554
      8 C3B        -4.1621    4.0180   -1.4340 C.3       1 ACP        -0.6550
      9 PA         -2.0037    4.7529    2.1525 P.3       1 ACP         1.5921
     10 O1A        -2.9381    5.3267    3.1957 O.co2     1 ACP        -0.8561
     11 O2A        -0.6728    5.4124    1.8637 O.co2     1 ACP        -0.8561
     12 O3A        -2.8235    4.6072    0.7474 O.3       1 ACP        -0.8166
     13 O5'        -1.7337    3.1724    2.4754 O.3       1 ACP        -0.5737
     14 C5'        -0.8811    2.4285    1.6206 C.3       1 ACP         0.2197
     15 C4'        -0.1994    1.3333    2.4288 C.3       1 ACP         0.0944
     16 O4'        -1.1285    0.2356    2.5840 O.3       1 ACP        -0.4017
     17 C3'         1.0324    0.7610    1.7344 C.3       1 ACP         0.0859
     18 O3'         1.9175    0.2377    2.7247 O.3       1 ACP        -0.5941
     19 C2'         0.4468   -0.3802    0.9263 C.3       1 ACP         0.0924
     20 O2'         1.3993   -1.3703    0.5961 O.3       1 ACP        -0.5928
     21 C1'        -0.6159   -0.9100    1.8769 C.3       1 ACP         0.3967
     22 N9         -1.7127   -1.6108    1.2130 N.pl3     1 ACP        -0.6763
     23 C8         -2.5476   -1.0844    0.2632 C.ar      1 ACP         0.5586
     24 N7         -3.4391   -1.9591   -0.1536 N.2       1 ACP        -0.5795
     25 C5         -3.1701   -3.1016    0.5574 C.ar      1 ACP        -0.2116
     26 C6         -3.7593   -4.3620    0.5656 C.ar      1 ACP         0.7185
     27 N6         -4.8512   -4.6493   -0.2712 N.pl3     1 ACP        -0.9442
     28 N1         -3.2659   -5.3144    1.3932 N.ar      1 ACP        -0.8040
     29 C2         -2.2122   -4.9785    2.1759 C.ar      1 ACP         0.6560
     30 N3         -1.5595   -3.7985    2.2572 N.ar      1 ACP        -0.7058
     31 C4         -2.0986   -2.9054    1.4140 C.ar      1 ACP         0.5729
     32 HOG2       -4.4899    5.8898   -4.5160 H         1 ACP         0.4440
     33 HOG3       -6.1247    6.9071   -2.3834 H         1 ACP         0.4440
     34 H3B1       -4.9666    3.3794   -1.8160 H         1 ACP         0.1084
     35 H3B2       -3.2160    3.5588   -1.7424 H         1 ACP         0.1084
     36 H5'1       -1.4802    1.9929    0.8148 H         1 ACP         0.0281
     37 H5'2       -0.1370    3.1043    1.1873 H         1 ACP         0.0281
     38 H4'         0.0403    1.7078    3.4343 H         1 ACP         0.1082
     39 H3'         1.5906    1.4859    1.1353 H         1 ACP         0.0650
     40 HO3'        2.1521    0.9800    3.3017 H         1 ACP         0.4300
     41 H2'        -0.0017    0.0018    0.0005 H         1 ACP         0.0785
     42 HO2'        2.0953   -0.9375    0.0709 H         1 ACP         0.4275
     43 H1'        -0.1998   -1.6319    2.6178 H         1 ACP         0.1009
     44 H8         -2.4576   -0.0639   -0.0831 H         1 ACP         0.1067
     45 HN61       -5.2371   -3.9234   -0.8448 H         1 ACP         0.4213
     46 HN62       -5.2909   -5.5485   -0.2160 H         1 ACP         0.4213
     47 H2         -1.8433   -5.7650    2.8259 H         1 ACP         0.0365
@<TRIPOS>BOND
     1    1    2 2
     2    1    3 1
     3    1    4 1
     4    1    8 1
     5    3   32 1
     6    4   33 1
     7    5    6 2
     8    5    7 1
     9    5    8 1
    10    5   12 1
    11    8   34 1
    12    8   35 1
    13    9   10 2
    14    9   11 1
    15    9   12 1
    16    9   13 1
    17   13   14 1
    18   14   15 1
    19   14   36 1
    20   14   37 1
    21   15   16 1
    22   15   17 1
    23   15   38 1
    24   16   21 1
    25   17   18 1
    26   17   19 1
    27   17   39 1
    28   18   40 1
    29   19   20 1
    30   19   21 1
    31   19   41 1
    32   20   42 1
    33   21   22 1
    34   21   43 1
    35   22   23 ar
    36   22   31 ar
    37   23   24 ar
    38   23   44 1
    39   24   25 ar
    40   25   26 ar
    41   25   31 ar
    42   26   27 1
    43   26   28 ar
    44   27   45 1
    45   27   46 1
    46   28   29 ar
    47   29   30 ar
    48   29   47 1
    49   30   31 ar
@<TRIPOS>SUBSTRUCTURE
     1 ACP         1 GROUP 0 A     ****
@<TRIPOS>MOLECULE
[[5-(6-aminopurin-9-yl)-3,4-dihydroxy-tetrahydrofuran-2-yl]methoxy-oxido-phosphoryl]oxy-(phosphonomethyl)phosphinate
   47    49     1     0     0
SMALL
USER_CHARGES

@<TRIPOS>ATOM
      1 PG         -4.7002    5.1675    1.8849 P.3       1 ACP         1.6478
      2 O1G        -4.0144    3.9645    1.3104 O.2       1 ACP        -0.9103
      3 O2G        -5.1911    5.0207    3.4171 O.3       1 ACP        -0.7989
      4 O3G        -6.0313    5.6450    1.1040 O.3       1 ACP        -0.7989
      5 PB         -2.0832    6.7718    2.8375 P.3       1 ACP         1.4947
      6 O1B        -2.3858    6.5102    4.2948 O.co2     1 ACP        -0.8554
      7 O2B        -1.3813    8.0263    2.3715 O.co2     1 ACP        -0.8554
      8 C3B        -3.6835    6.6611    1.9168 C.3       1 ACP        -0.6550
      9 PA          0.0332    4.7082    2.5761 P.3       1 ACP         1.5921
     10 O1A        -0.1148    4.1078    3.9574 O.co2     1 ACP        -0.8561
     11 O2A         1.1835    5.6391    2.2595 O.co2     1 ACP        -0.8561
     12 O3A        -1.3627    5.4617    2.1868 O.3       1 ACP        -0.8166
     13 O5'         0.0182    3.5132    1.4596 O.3       1 ACP        -0.5737
     14 C5'        -0.8811    2.4285    1.6206 C.3       1 ACP         0.2197
     15 C4'        -0.1994    1.3333    2.4288 C.3       1 ACP         0.0944
     16 O4'        -1.1285    0.2356    2.5840 O.3       1 ACP        -0.4017
     17 C3'         1.0324    0.7610    1.7344 C.3       1 ACP         0.0859
     18 O3'         1.9175    0.2377    2.7247 O.3       1 ACP        -0.5941
     19 C2'         0.4468   -0.3802    0.9263 C.3       1 ACP         0.0924
     20 O2'         1.3993   -1.3703    0.5961 O.3       1 ACP        -0.5928
     21 C1'        -0.6159   -0.9100    1.8769 C.3       1 ACP         0.3967
     22 N9         -1.7127   -1.6108    1.2130 N.pl3     1 ACP        -0.6763
     23 C8         -2.8641   -1.0399    0.7392 C.ar      1 ACP         0.5586
     24 N7         -3.6659   -1.9257    0.1858 N.2       1 ACP        -0.5795
     25 C5         -3.0053   -3.1223    0.3069 C.ar      1 ACP        -0.2116
     26 C6         -3.3321   -4.4178   -0.0813 C.ar      1 ACP         0.7185
     27 N6         -4.5476   -4.6866   -0.7335 N.pl3     1 ACP        -0.9442
     28 N1         -2.4608   -5.4225    0.1773 N.ar      1 ACP        -0.8040
     29 C2         -1.3053   -5.1020    0.8081 C.ar      1 ACP         0.6560
     30 N3         -0.8788   -3.8921    1.2315 N.ar      1 ACP        -0.7058
     31 C4         -1.7870   -2.9477    0.9438 C.ar      1 ACP         0.5729
     32 HOG2       -5.8350    4.3166    3.6443 H         1 ACP         0.4440
     33 HOG3       -6.7857    5.0230    1.0266 H         1 ACP         0.4440
     34 H3B1       -3.4446    6.9211    0.8793 H         1 ACP         0.1084
     35 H3B2       -4.3121    7.4674    2.3115 H         1 ACP         0.1084
     36 H5'1       -1.7769    2.7852    2.1386 H         1 ACP         0.0281
     37 H5'2       -1.1652    2.0544    0.6320 H         1 ACP         0.0281
     38 H4'         0.0403    1.7078    3.4343 H         1 ACP         0.1082
     39 H3'         1.5906    1.4859    1.1353 H         1 ACP         0.0650
     40 HO3'        2.6839   -0.1150    2.2479 H         1 ACP         0.4300
     41 H2'        -0.0017    0.0018    0.0005 H         1 ACP         0.0785
     42 HO2'        2.0953   -0.9375    0.0709 H         1 ACP         0.4275
     43 H1'        -0.1998   -1.6319    2.6178 H         1 ACP         0.1009
     44 H8         -3.0609    0.0200    0.8250 H         1 ACP         0.1067
     45 HN61       -5.2046   -3.9433   -0.8775 H         1 ACP         0.4213
     46 HN62       -4.7849   -5.6332   -0.9625 H         1 ACP         0.4213
     47 H2         -0.6318   -5.9307    0.9993 H         1 ACP         0.0365
@<TRIPOS>BOND
     1    1    2 2
     2    1    3 1
     3    1    4 1
     4    1    8 1
     5    3   32 1
     6    4   33 1
     7    5    6 2
     8    5    7 1
     9    5    8 1
    10    5   12 1
    11    8   34 1
    12    8   35 1
    13    9   10 2
    14    9   11 1
    15    9   12 1
    16    9   13 1
    17   13   14 1
    18   14   15 1
    19   14   36 1
    20   14   37 1
    21   15   16 1
    22   15   17 1
    23   15   38 1
    24   16   21 1
    25   17   18 1
    26   17   19 1
    27   17   39 1
    28   18   40 1
    29   19   20 1
    30   19   21 1
    31   19   41 1
    32   20   42 1
    33   21   22 1
    34   21   43 1
    35   22   23 ar
    36   22   31 ar
    37   23   24 ar
    38   23   44 1
    39   24   25 ar
    40   25   26 ar
    41   25   31 ar
    42   26   27 1
    43   26   28 ar
    44   27   45 1
    45   27   46 1
    46   28   29 ar
    47   29   30 ar
    48   29   47 1
    49   30   31 ar
@<TRIPOS>SUBSTRUCTURE
     1 ACP         1 GROUP 0 A     ****
@<TRIPOS>MOLECULE
[[5-(6-aminopurin-9-yl)-3,4-dihydroxy-tetrahydrofuran-2-yl]methoxy-oxido-phosphoryl]oxy-(phosphonomethyl)phosphinate
   47    49     1     0     0
SMALL
USER_CHARGES

@<TRIPOS>ATOM
      1 PG         -3.3481    3.4311   -2.2609 P.3       1 ACP         1.6478
      2 O1G        -4.6861    3.5906   -1.6039 O.2       1 ACP        -0.9103
      3 O2G        -3.3752    2.7915   -3.7443 O.3       1 ACP        -0.7989
      4 O3G        -2.2924    2.5019   -1.4662 O.3       1 ACP        -0.7989
      5 PB         -1.9476    6.0763   -1.0898 P.3       1 ACP         1.4947
      6 O1B        -3.2152    6.5028   -0.3863 O.co2     1 ACP        -0.8554
      7 O2B        -0.9492    7.0741   -1.6295 O.co2     1 ACP        -0.8554
      8 C3B        -2.4423    4.9775   -2.4929 C.3       1 ACP        -0.6550
      9 PA         -0.5788    5.0300    1.3263 P.3       1 ACP         1.5921
     10 O1A        -1.7338    5.2023    2.2890 O.co2     1 ACP        -0.8561
     11 O2A         0.5830    5.9997    1.3349 O.co2     1 ACP        -0.8561
     12 O3A        -1.1769    4.9545   -0.1916 O.3       1 ACP        -0.8166
     13 O5'         0.0182    3.5132    1.4596 O.3       1 ACP        -0.5737
     14 C5'        -0.8811    2.4285    1.6206 C.3       1 ACP         0.2197
     15 C4'        -0.1994    1.3333    2.4288 C.3       1 ACP         0.0944
     16 O4'        -1.1285    0.2356    2.5840 O.3       1 ACP        -0.4017
     17 C3'         1.0324    0.7610    1.7344 C.3       1 ACP         0.0859
     18 O3'         1.9175    0.2377    2.7247 O.3       1 ACP        -0.5941
     19 C2'         0.4468   -0.3802    0.9263 C.3       1 ACP         0.0924
     20 O2'         1.3993   -1.3703    0.5961 O.3       1 ACP        -0.5928
     21 C1'        -0.6159   -0.9100    1.8769 C.3       1 ACP         0.3967
     22 N9         -1.7127   -1.6108    1.2130 N.pl3     1 ACP        -0.6763
     23 C8         -1.7712   -2.9546    0.9544 C.ar      1 ACP         0.5586
     24 N7         -2.8883   -3.2948    0.3462 N.2       1 ACP        -0.5795
     25 C5         -3.5834   -2.1202    0.2043 C.ar      1 ACP        -0.2116
     26 C6         -4.8225   -1.8251   -0.3554 C.ar      1 ACP         0.7185
     27 N6         -5.6154   -2.8394   -0.9189 N.pl3     1 ACP        -0.9442
     28 N1         -5.2589   -0.5425   -0.3507 N.ar      1 ACP        -0.8040
     29 C2         -4.4510    0.3913    0.2069 C.ar      1 ACP         0.6560
     30 N3         -3.2368    0.2296    0.7767 N.ar      1 ACP        -0.7058
     31 C4         -2.8684   -1.0596    0.7376 C.ar      1 ACP         0.5729
     32 HOG2       -3.7482    1.8928   -3.8674 H         1 ACP         0.4440
     33 HOG3       -2.5230    1.5651   -1.2893 H         1 ACP         0.4440
     34 H3B1       -1.5128    4.7403   -3.0227 H         1 ACP         0.1084
     35 H3B2       -3.0424    5.6019   -3.1646 H         1 ACP         0.1084
     36 H5'1       -1.7769    2.7852    2.1386 H         1 ACP         0.0281
     37 H5'2       -1.1652    2.0544    0.6320 H         1 ACP         0.0281
     38 H4'         0.0403    1.7078    3.4343 H         1 ACP         0.1082
     39 H3'         1.5906    1.4859    1.1353 H         1 ACP         0.0650
     40 HO3'        2.1521    0.9800    3.3017 H         1 ACP         0.4300
     41 H2'        -0.0017    0.0018    0.0005 H         1 ACP         0.0785
     42 HO2'        0.9369   -2.0558    0.0825 H         1 ACP         0.4275
     43 H1'        -0.1998   -1.6319    2.6178 H         1 ACP         0.1009
     44 H8         -0.9745   -3.6312    1.2318 H         1 ACP         0.1067
     45 HN61       -5.2619   -3.7766   -0.9586 H         1 ACP         0.4213
     46 HN62       -6.4834   -2.5990   -1.3590 H         1 ACP         0.4213
     47 H2         -4.8317    1.4071    0.1930 H         1 ACP         0.0365
@<TRIPOS>BOND
     1    1    2 2
     2    1    3 1
     3    1    4 1
     4    1    8 1
     5    3   32 1
     6    4   33 1
     7    5    6 2
     8    5    7 1
     9    5    8 1
    10    5   12 1
    11    8   34 1
    12    8   35 1
    13    9   10 2
    14    9   11 1
    15    9   12 1
    16    9   13 1
    17   13   14 1
    18   14   15 1
    19   14   36 1
    20   14   37 1
    21   15   16 1
    22   15   17 1
    23   15   38 1
    24   16   21 1
    25   17   18 1
    26   17   19 1
    27   17   39 1
    28   18   40 1
    29   19   20 1
    30   19   21 1
    31   19   41 1
    32   20   42 1
    33   21   22 1
    34   21   43 1
    35   22   23 ar
    36   22   31 ar
    37   23   24 ar
    38   23   44 1
    39   24   25 ar
    40   25   26 ar
    41   25   31 ar
    42   26   27 1
    43   26   28 ar
    44   27   45 1
    45   27   46 1
    46   28   29 ar
    47   29   30 ar
    48   29   47 1
    49   30   31 ar
@<TRIPOS>SUBSTRUCTURE
     1 ACP         1 GROUP 0 A     ****
@<TRIPOS>MOLECULE
[[5-(6-aminopurin-9-yl)-3,4-dihydroxy-tetrahydrofuran-2-yl]methoxy-oxido-phosphoryl]oxy-(phosphonomethyl)phosphinate
   47    49     1     0     0
SMALL
USER_CHARGES

@<TRIPOS>ATOM
      1 PG         -3.3972    4.0329    5.0887 P.3       1 ACP         1.6478
      2 O1G        -3.0256    2.5927    5.2760 O.2       1 ACP        -0.9103
      3 O2G        -4.5304    4.5937    6.0945 O.3       1 ACP        -0.7989
      4 O3G        -3.9645    4.4174    3.6258 O.3       1 ACP        -0.7989
      5 PB         -0.4924    5.1526    4.2900 P.3       1 ACP         1.4947
      6 O1B         0.1458    3.7974    4.4899 O.co2     1 ACP        -0.8554
      7 O2B         0.2535    6.4417    4.5460 O.co2     1 ACP        -0.8554
      8 C3B        -2.0297    5.1917    5.3176 C.3       1 ACP        -0.6550
      9 PA         -0.5788    5.0300    1.3263 P.3       1 ACP         1.5921
     10 O1A         0.5648    6.0081    1.1646 O.co2     1 ACP        -0.8561
     11 O2A        -1.7187    5.0058    0.3313 O.co2     1 ACP        -0.8561
     12 O3A        -1.2048    5.2086    2.8242 O.3       1 ACP        -0.8166
     13 O5'         0.0182    3.5132    1.4596 O.3       1 ACP        -0.5737
     14 C5'        -0.8811    2.4285    1.6206 C.3       1 ACP         0.2197
     15 C4'        -0.1994    1.3333    2.4288 C.3       1 ACP         0.0944
     16 O4'        -1.1285    0.2356    2.5840 O.3       1 ACP        -0.4017
     17 C3'         1.0324    0.7610    1.7344 C.3       1 ACP         0.0859
     18 O3'         1.9175    0.2377    2.7247 O.3       1 ACP        -0.5941
     19 C2'         0.4468   -0.3802    0.9263 C.3       1 ACP         0.0924
     20 O2'         1.3993   -1.3703    0.5961 O.3       1 ACP        -0.5928
     21 C1'        -0.6159   -0.9100    1.8769 C.3       1 ACP         0.3967
     22 N9         -1.7127   -1.6108    1.2130 N.pl3     1 ACP        -0.6763
     23 C8         -2.8641   -1.0399    0.7392 C.ar      1 ACP         0.5586
     24 N7         -3.6659   -1.9257    0.1858 N.2       1 ACP        -0.5795
     25 C5         -3.0053   -3.1223    0.3069 C.ar      1 ACP        -0.2116
     26 C6         -3.3321   -4.4178   -0.0813 C.ar      1 ACP         0.7185
     27 N6         -4.5476   -4.6866   -0.7335 N.pl3     1 ACP        -0.9442
     28 N1         -2.4608   -5.4225    0.1773 N.ar      1 ACP        -0.8040
     29 C2         -1.3053   -5.1020    0.8081 C.ar      1 ACP         0.6560
     30 N3         -0.8788   -3.8921    1.2315 N.ar      1 ACP        -0.7058
     31 C4         -1.7870   -2.9477    0.9438 C.ar      1 ACP         0.5729
     32 HOG2       -5.4168    4.1739    6.0931 H         1 ACP         0.4440
     33 HOG3       -4.7763    3.9742    3.2993 H         1 ACP         0.4440
     34 H3B1       -2.4322    6.2049    5.2064 H         1 ACP         0.1084
     35 H3B2       -1.6971    5.0925    6.3572 H         1 ACP         0.1084
     36 H5'1       -1.7769    2.7852    2.1386 H         1 ACP         0.0281
     37 H5'2       -1.1652    2.0544    0.6320 H         1 ACP         0.0281
     38 H4'         0.0403    1.7078    3.4343 H         1 ACP         0.1082
     39 H3'         1.5906    1.4859    1.1353 H         1 ACP         0.0650
     40 HO3'        2.1521    0.9800    3.3017 H         1 ACP         0.4300
     41 H2'        -0.0017    0.0018    0.0005 H         1 ACP         0.0785
     42 HO2'        0.9369   -2.0558    0.0825 H         1 ACP         0.4275
     43 H1'        -0.1998   -1.6319    2.6178 H         1 ACP         0.1009
     44 H8         -3.0609    0.0200    0.8250 H         1 ACP         0.1067
     45 HN61       -4.7432   -5.6184   -1.0469 H         1 ACP         0.4213
     46 HN62       -5.1624   -3.9284   -0.9616 H         1 ACP         0.4213
     47 H2         -0.6318   -5.9307    0.9993 H         1 ACP         0.0365
@<TRIPOS>BOND
     1    1    2 2
     2    1    3 1
     3    1    4 1
     4    1    8 1
     5    3   32 1
     6    4   33 1
     7    5    6 2
     8    5    7 1
     9    5    8 1
    10    5   12 1
    11    8   34 1
    12    8   35 1
    13    9   10 2
    14    9   11 1
    15    9   12 1
    16    9   13 1
    17   13   14 1
    18   14   15 1
    19   14   36 1
    20   14   37 1
    21   15   16 1
    22   15   17 1
    23   15   38 1
    24   16   21 1
    25   17   18 1
    26   17   19 1
    27   17   39 1
    28   18   40 1
    29   19   20 1
    30   19   21 1
    31   19   41 1
    32   20   42 1
    33   21   22 1
    34   21   43 1
    35   22   23 ar
    36   22   31 ar
    37   23   24 ar
    38   23   44 1
    39   24   25 ar
    40   25   26 ar
    41   25   31 ar
    42   26   27 1
    43   26   28 ar
    44   27   45 1
    45   27   46 1
    46   28   29 ar
    47   29   30 ar
    48   29   47 1
    49   30   31 ar
@<TRIPOS>SUBSTRUCTURE
     1 ACP         1 GROUP 0 A     ****
@<TRIPOS>MOLECULE
[[5-(6-aminopurin-9-yl)-3,4-dihydroxy-tetrahydrofuran-2-yl]methoxy-oxido-phosphoryl]oxy-(phosphonomethyl)phosphinate
   47    49     1     0     0
SMALL
USER_CHARGES

@<TRIPOS>ATOM
      1 PG          7.7252    1.5659    4.0779 P.3       1 ACP         1.6478
      2 O1G         8.8836    1.1282    4.9227 O.2       1 ACP        -0.9103
      3 O2G         6.2678    1.3855    4.7514 O.3       1 ACP        -0.7989
      4 O3G         7.5816    0.8136    2.6556 O.3       1 ACP        -0.7989
      5 PB          6.4454    4.1059    2.5810 P.3       1 ACP         1.4947
      6 O1B         6.8219    5.5603    2.4180 O.co2     1 ACP        -0.8554
      7 O2B         5.1083    3.6758    3.1384 O.co2     1 ACP        -0.8554
      8 C3B         7.7558    3.3133    3.6182 C.3       1 ACP        -0.6550
      9 PA          6.1592    3.5244   -0.3148 P.3       1 ACP         1.5921
     10 O1A         6.6744    2.4082   -1.1976 O.co2     1 ACP        -0.8561
     11 O2A         6.3656    4.9722   -0.7036 O.co2     1 ACP        -0.8561
     12 O3A         6.7482    3.3058    1.1928 O.3       1 ACP        -0.8166
     13 O5'         4.5669    3.2941   -0.0211 O.3       1 ACP        -0.5737
     14 C5'         4.0922    1.9801    0.2227 C.3       1 ACP         0.2197
     15 C4'         2.5944    2.0310    0.4653 C.3       1 ACP         0.0944
     16 O4'         1.9327    2.5740   -0.6889 O.3       1 ACP        -0.4017
     17 C3'         1.9685    0.6634    0.6767 C.3       1 ACP         0.0859
     18 O3'         2.1425    0.1975    1.9977 O.3       1 ACP        -0.5941
     19 C2'         0.5176    0.9128    0.3099 C.3       1 ACP         0.0924
     20 O2'        -0.2103    1.4454    1.4152 O.3       1 ACP        -0.5928
     21 C1'         0.6219    1.9765   -0.7844 C.3       1 ACP         0.3967
     22 N9          0.4237    1.4496   -2.1357 N.pl3     1 ACP        -0.6763
     23 C8          1.4026    0.9717   -2.9660 C.ar      1 ACP         0.5586
     24 N7          0.9183    0.5619   -4.1197 N.2       1 ACP        -0.5795
     25 C5         -0.4330    0.7845   -4.0331 C.ar      1 ACP        -0.2116
     26 C6         -1.4794    0.5615   -4.9225 C.ar      1 ACP         0.7185
     27 N6         -1.2378    0.0044   -6.1899 N.pl3     1 ACP        -0.9442
     28 N1         -2.7406    0.8885   -4.5512 N.ar      1 ACP        -0.8040
     29 C2         -2.9113    1.4216   -3.3172 C.ar      1 ACP         0.6560
     30 N3         -1.9824    1.6843   -2.3721 N.ar      1 ACP        -0.7058
     31 C4         -0.7613    1.3370   -2.8054 C.ar      1 ACP         0.5729
     32 HOG2        5.9739    0.4875    5.0146 H         1 ACP         0.4440
     33 HOG3        7.4609   -0.1597    2.6428 H         1 ACP         0.4440
     34 H3B1        7.7923    3.8985    4.5439 H         1 ACP         0.1084
     35 H3B2        8.7009    3.4889    3.0918 H         1 ACP         0.1084
     36 H5'1        4.3181    1.3551   -0.6470 H         1 ACP         0.0281
     37 H5'2        4.6085    1.5740    1.0982 H         1 ACP         0.0281
     38 H4'         2.3751    2.7029    1.3156 H         1 ACP         0.1082
     39 H3'         2.4336   -0.1217   -0.0015 H         1 ACP         0.0650
     40 HO3'        1.7160   -0.6716    2.0397 H         1 ACP         0.4300
     41 H2'         0.0316    0.0155   -0.0339 H         1 ACP         0.0785
     42 HO2'       -0.1608    0.7921    2.1351 H         1 ACP         0.4275
     43 H1'        -0.1474    2.7798   -0.6651 H         1 ACP         0.1009
     44 H8          2.4442    0.9470   -2.6763 H         1 ACP         0.1067
     45 HN61       -0.2955   -0.1901   -6.4713 H         1 ACP         0.4213
     46 HN62       -1.9987   -0.1045   -6.8334 H         1 ACP         0.4213
     47 H2         -3.9335    1.6716   -3.0534 H         1 ACP         0.0365
@<TRIPOS>BOND
     1    1    2 2
     2    1    3 1
     3    1    4 1
     4    1    8 1
     5    3   32 1
     6    4   33 1
     7    5    6 2
     8    5    7 1
     9    5    8 1
    10    5   12 1
    11    8   34 1
    12    8   35 1
    13    9   10 2
    14    9   11 1
    15    9   12 1
    16    9   13 1
    17   13   14 1
    18   14   15 1
    19   14   36 1
    20   14   37 1
    21   15   16 1
    22   15   17 1
    23   15   38 1
    24   16   21 1
    25   17   18 1
    26   17   19 1
    27   17   39 1
    28   18   40 1
    29   19   20 1
    30   19   21 1
    31   19   41 1
    32   20   42 1
    33   21   22 1
    34   21   43 1
    35   22   23 ar
    36   22   31 ar
    37   23   24 ar
    38   23   44 1
    39   24   25 ar
    40   25   26 ar
    41   25   31 ar
    42   26   27 1
    43   26   28 ar
    44   27   45 1
    45   27   46 1
    46   28   29 ar
    47   29   30 ar
    48   29   47 1
    49   30   31 ar
@<TRIPOS>SUBSTRUCTURE
     1 ACP         1 GROUP 0 A     ****
@<TRIPOS>MOLECULE
[[5-(6-aminopurin-9-yl)-3,4-dihydroxy-tetrahydrofuran-2-yl]methoxy-oxido-phosphoryl]oxy-(phosphonomethyl)phosphinate
   47    49     1     0     0
SMALL
USER_CHARGES

@<TRIPOS>ATOM
      1 PG         -3.7376    7.6756   -0.6352 P.3       1 ACP         1.6478
      2 O1G        -5.1258    7.9969   -1.1010 O.2       1 ACP        -0.9103
      3 O2G        -2.8357    8.9475   -0.2122 O.3       1 ACP        -0.7989
      4 O3G        -2.8123    6.8927   -1.7031 O.3       1 ACP        -0.7989
      5 PB         -2.0802    6.0698    1.6018 P.3       1 ACP         1.4947
      6 O1B        -2.4351    5.2031    2.7877 O.co2     1 ACP        -0.8554
      7 O2B        -1.1993    7.2910    1.7294 O.co2     1 ACP        -0.8554
      8 C3B        -3.6683    6.6143    0.8257 C.3       1 ACP        -0.6550
      9 PA         -0.0885    4.4445    0.1193 P.3       1 ACP         1.5921
     10 O1A         0.9671    5.5276    0.1742 O.co2     1 ACP        -0.8561
     11 O2A        -0.1962    3.5335   -1.0842 O.co2     1 ACP        -0.8561
     12 O3A        -1.5478    5.1301    0.3800 O.3       1 ACP        -0.8166
     13 O5'         0.0182    3.5132    1.4596 O.3       1 ACP        -0.5737
     14 C5'        -0.8811    2.4285    1.6206 C.3       1 ACP         0.2197
     15 C4'        -0.1994    1.3333    2.4288 C.3       1 ACP         0.0944
     16 O4'        -1.1285    0.2356    2.5840 O.3       1 ACP        -0.4017
     17 C3'         1.0324    0.7610    1.7344 C.3       1 ACP         0.0859
     18 O3'         1.9175    0.2377    2.7247 O.3       1 ACP        -0.5941
     19 C2'         0.4468   -0.3802    0.9263 C.3       1 ACP         0.0924
     20 O2'         1.3993   -1.3703    0.5961 O.3       1 ACP        -0.5928
     21 C1'        -0.6159   -0.9100    1.8769 C.3       1 ACP         0.3967
     22 N9         -1.7127   -1.6108    1.2130 N.pl3     1 ACP        -0.6763
     23 C8         -1.7712   -2.9546    0.9544 C.ar      1 ACP         0.5586
     24 N7         -2.8883   -3.2948    0.3462 N.2       1 ACP        -0.5795
     25 C5         -3.5834   -2.1202    0.2043 C.ar      1 ACP        -0.2116
     26 C6         -4.8225   -1.8251   -0.3554 C.ar      1 ACP         0.7185
     27 N6         -5.6154   -2.8394   -0.9189 N.pl3     1 ACP        -0.9442
     28 N1         -5.2589   -0.5425   -0.3507 N.ar      1 ACP        -0.8040
     29 C2         -4.4510    0.3913    0.2069 C.ar      1 ACP         0.6560
     30 N3         -3.2368    0.2296    0.7767 N.ar      1 ACP        -0.7058
     31 C4         -2.8684   -1.0596    0.7376 C.ar      1 ACP         0.5729
     32 HOG2       -2.6490    9.6408   -0.8804 H         1 ACP         0.4440
     33 HOG3       -2.6228    7.3154   -2.5677 H         1 ACP         0.4440
     34 H3B1       -4.2301    7.1126    1.6238 H         1 ACP         0.1084
     35 H3B2       -4.2113    5.6948    0.5790 H         1 ACP         0.1084
     36 H5'1       -1.7769    2.7852    2.1386 H         1 ACP         0.0281
     37 H5'2       -1.1652    2.0544    0.6320 H         1 ACP         0.0281
     38 H4'         0.0403    1.7078    3.4343 H         1 ACP         0.1082
     39 H3'         1.5906    1.4859    1.1353 H         1 ACP         0.0650
     40 HO3'        2.6839   -0.1150    2.2479 H         1 ACP         0.4300
     41 H2'        -0.0017    0.0018    0.0005 H         1 ACP         0.0785
     42 HO2'        2.0953   -0.9375    0.0709 H         1 ACP         0.4275
     43 H1'        -0.1998   -1.6319    2.6178 H         1 ACP         0.1009
     44 H8         -0.9745   -3.6312    1.2318 H         1 ACP         0.1067
     45 HN61       -5.2619   -3.7766   -0.9586 H         1 ACP         0.4213
     46 HN62       -6.4834   -2.5990   -1.3590 H         1 ACP         0.4213
     47 H2         -4.8317    1.4071    0.1930 H         1 ACP         0.0365
@<TRIPOS>BOND
     1    1    2 2
     2    1    3 1
     3    1    4 1
     4    1    8 1
     5    3   32 1
     6    4   33 1
     7    5    6 2
     8    5    7 1
     9    5    8 1
    10    5   12 1
    11    8   34 1
    12    8   35 1
    13    9   10 2
    14    9   11 1
    15    9   12 1
    16    9   13 1
    17   13   14 1
    18   14   15 1
    19   14   36 1
    20   14   37 1
    21   15   16 1
    22   15   17 1
    23   15   38 1
    24   16   21 1
    25   17   18 1
    26   17   19 1
    27   17   39 1
    28   18   40 1
    29   19   20 1
    30   19   21 1
    31   19   41 1
    32   20   42 1
    33   21   22 1
    34   21   43 1
    35   22   23 ar
    36   22   31 ar
    37   23   24 ar
    38   23   44 1
    39   24   25 ar
    40   25   26 ar
    41   25   31 ar
    42   26   27 1
    43   26   28 ar
    44   27   45 1
    45   27   46 1
    46   28   29 ar
    47   29   30 ar
    48   29   47 1
    49   30   31 ar
@<TRIPOS>SUBSTRUCTURE
     1 ACP         1 GROUP 0 A     ****
@<TRIPOS>MOLECULE
[[5-(6-aminopurin-9-yl)-3,4-dihydroxy-tetrahydrofuran-2-yl]methoxy-oxido-phosphoryl]oxy-(phosphonomethyl)phosphinate
   47    49     1     0     0
SMALL
USER_CHARGES

@<TRIPOS>ATOM
      1 PG         -0.5790    8.6173    0.6682 P.3       1 ACP         1.6478
      2 O1G        -1.4487    9.5257    1.4841 O.2       1 ACP        -0.9103
      3 O2G         0.5368    9.3545   -0.2384 O.3       1 ACP        -0.7989
      4 O3G        -1.3592    7.6723   -0.3844 O.3       1 ACP        -0.7989
      5 PB         -0.3810    6.1810    2.7551 P.3       1 ACP         1.4947
      6 O1B        -1.1833    6.9318    3.7924 O.co2     1 ACP        -0.8554
      7 O2B         0.6983    5.1919    3.1299 O.co2     1 ACP        -0.8554
      8 C3B         0.3883    7.4401    1.6398 C.3       1 ACP        -0.6550
      9 PA         -2.5927    4.4187    1.8559 P.3       1 ACP         1.5921
     10 O1A        -3.1158    4.0380    0.4876 O.co2     1 ACP        -0.8561
     11 O2A        -3.5338    4.9255    2.9271 O.co2     1 ACP        -0.8561
     12 O3A        -1.3917    5.5091    1.6659 O.3       1 ACP        -0.8166
     13 O5'        -1.7337    3.1724    2.4754 O.3       1 ACP        -0.5737
     14 C5'        -0.8811    2.4285    1.6206 C.3       1 ACP         0.2197
     15 C4'        -0.1994    1.3333    2.4288 C.3       1 ACP         0.0944
     16 O4'        -1.1285    0.2356    2.5840 O.3       1 ACP        -0.4017
     17 C3'         1.0324    0.7610    1.7344 C.3       1 ACP         0.0859
     18 O3'         1.9175    0.2377    2.7247 O.3       1 ACP        -0.5941
     19 C2'         0.4468   -0.3802    0.9263 C.3       1 ACP         0.0924
     20 O2'         1.3993   -1.3703    0.5961 O.3       1 ACP        -0.5928
     21 C1'        -0.6159   -0.9100    1.8769 C.3       1 ACP         0.3967
     22 N9         -1.7127   -1.6108    1.2130 N.pl3     1 ACP        -0.6763
     23 C8         -2.0877   -2.9101    1.4304 C.ar      1 ACP         0.5586
     24 N7         -3.1152   -3.2613    0.6857 N.2       1 ACP        -0.5795
     25 C5         -3.4186   -2.1409   -0.0462 C.ar      1 ACP        -0.2116
     26 C6         -4.3953   -1.8809   -1.0023 C.ar      1 ACP         0.7185
     27 N6         -5.3118   -2.8767   -1.3812 N.pl3     1 ACP        -0.9442
     28 N1         -4.4538   -0.6507   -1.5667 N.ar      1 ACP        -0.8040
     29 C2         -3.5442    0.2679   -1.1609 C.ar      1 ACP         0.6560
     30 N3         -2.5561    0.1361   -0.2491 N.ar      1 ACP        -0.7058
     31 C4         -2.5568   -1.1019    0.2674 C.ar      1 ACP         0.5729
     32 HOG2        0.2460    9.9937   -0.9231 H         1 ACP         0.4440
     33 HOG3       -1.8998    8.0901   -1.0882 H         1 ACP         0.4440
     34 H3B1        1.0153    6.8722    0.9433 H         1 ACP         0.1084
     35 H3B2        1.0642    8.0268    2.2724 H         1 ACP         0.1084
     36 H5'1       -1.4802    1.9929    0.8148 H         1 ACP         0.0281
     37 H5'2       -0.1370    3.1043    1.1873 H         1 ACP         0.0281
     38 H4'         0.0403    1.7078    3.4343 H         1 ACP         0.1082
     39 H3'         1.5906    1.4859    1.1353 H         1 ACP         0.0650
     40 HO3'        2.1521    0.9800    3.3017 H         1 ACP         0.4300
     41 H2'        -0.0017    0.0018    0.0005 H         1 ACP         0.0785
     42 HO2'        2.0953   -0.9375    0.0709 H         1 ACP         0.4275
     43 H1'        -0.1998   -1.6319    2.6178 H         1 ACP         0.1009
     44 H8         -1.5778   -3.5473    2.1399 H         1 ACP         0.1067
     45 HN61       -5.2294   -3.7965   -0.9914 H         1 ACP         0.4213
     46 HN62       -5.9774   -2.6837   -2.1055 H         1 ACP         0.4213
     47 H2         -3.6201    1.2414   -1.6336 H         1 ACP         0.0365
@<TRIPOS>BOND
     1    1    2 2
     2    1    3 1
     3    1    4 1
     4    1    8 1
     5    3   32 1
     6    4   33 1
     7    5    6 2
     8    5    7 1
     9    5    8 1
    10    5   12 1
    11    8   34 1
    12    8   35 1
    13    9   10 2
    14    9   11 1
    15    9   12 1
    16    9   13 1
    17   13   14 1
    18   14   15 1
    19   14   36 1
    20   14   37 1
    21   15   16 1
    22   15   17 1
    23   15   38 1
    24   16   21 1
    25   17   18 1
    26   17   19 1
    27   17   39 1
    28   18   40 1
    29   19   20 1
    30   19   21 1
    31   19   41 1
    32   20   42 1
    33   21   22 1
    34   21   43 1
    35   22   23 ar
    36   22   31 ar
    37   23   24 ar
    38   23   44 1
    39   24   25 ar
    40   25   26 ar
    41   25   31 ar
    42   26   27 1
    43   26   28 ar
    44   27   45 1
    45   27   46 1
    46   28   29 ar
    47   29   30 ar
    48   29   47 1
    49   30   31 ar
@<TRIPOS>SUBSTRUCTURE
     1 ACP         1 GROUP 0 A     ****
@<TRIPOS>MOLECULE
[[5-(6-aminopurin-9-yl)-3,4-dihydroxy-tetrahydrofuran-2-yl]methoxy-oxido-phosphoryl]oxy-(phosphonomethyl)phosphinate
   47    49     1     0     0
SMALL
USER_CHARGES

@<TRIPOS>ATOM
      1 PG         -5.4414    6.3742    2.3479 P.3       1 ACP         1.6478
      2 O1G        -5.0952    6.5392    0.8987 O.2       1 ACP        -0.9103
      3 O2G        -6.9394    5.8487    2.6480 O.3       1 ACP        -0.7989
      4 O3G        -5.3217    7.7119    3.2456 O.3       1 ACP        -0.7989
      5 PB         -2.5690    5.3798    3.3921 P.3       1 ACP         1.4947
      6 O1B        -2.0647    4.2016    4.1928 O.co2     1 ACP        -0.8554
      7 O2B        -2.2979    6.8091    3.8010 O.co2     1 ACP        -0.8554
      8 C3B        -4.4019    5.1902    3.2328 C.3       1 ACP        -0.6550
      9 PA         -0.7382    5.0055    1.0868 P.3       1 ACP         1.5921
     10 O1A         0.1355    6.1779    1.4774 O.co2     1 ACP        -0.8561
     11 O2A        -0.9749    4.6722   -0.3702 O.co2     1 ACP        -0.8561
     12 O3A        -2.1880    5.1734    1.8200 O.3       1 ACP        -0.8166
     13 O5'        -0.2059    3.6558    1.8419 O.3       1 ACP        -0.5737
     14 C5'        -0.8811    2.4285    1.6206 C.3       1 ACP         0.2197
     15 C4'        -0.1994    1.3333    2.4288 C.3       1 ACP         0.0944
     16 O4'        -1.1285    0.2356    2.5840 O.3       1 ACP        -0.4017
     17 C3'         1.0324    0.7610    1.7344 C.3       1 ACP         0.0859
     18 O3'         1.9175    0.2377    2.7247 O.3       1 ACP        -0.5941
     19 C2'         0.4468   -0.3802    0.9263 C.3       1 ACP         0.0924
     20 O2'         1.3993   -1.3703    0.5961 O.3       1 ACP        -0.5928
     21 C1'        -0.6159   -0.9100    1.8769 C.3       1 ACP         0.3967
     22 N9         -1.7127   -1.6108    1.2130 N.pl3     1 ACP        -0.6763
     23 C8         -2.5476   -1.0844    0.2632 C.ar      1 ACP         0.5586
     24 N7         -3.4391   -1.9591   -0.1536 N.2       1 ACP        -0.5795
     25 C5         -3.1701   -3.1016    0.5574 C.ar      1 ACP        -0.2116
     26 C6         -3.7593   -4.3620    0.5656 C.ar      1 ACP         0.7185
     27 N6         -4.8512   -4.6493   -0.2712 N.pl3     1 ACP        -0.9442
     28 N1         -3.2659   -5.3144    1.3932 N.ar      1 ACP        -0.8040
     29 C2         -2.2122   -4.9785    2.1759 C.ar      1 ACP         0.6560
     30 N3         -1.5595   -3.7985    2.2572 N.ar      1 ACP        -0.7058
     31 C4         -2.0986   -2.9054    1.4140 C.ar      1 ACP         0.5729
     32 HOG2       -7.7013    6.3824    2.3370 H         1 ACP         0.4440
     33 HOG3       -5.8704    8.4909    3.0130 H         1 ACP         0.4440
     34 H3B1       -4.7806    5.1192    4.2587 H         1 ACP         0.1084
     35 H3B2       -4.5619    4.2121    2.7650 H         1 ACP         0.1084
     36 H5'1       -1.9255    2.5383    1.9294 H         1 ACP         0.0281
     37 H5'2       -0.8472    2.1934    0.5521 H         1 ACP         0.0281
     38 H4'         0.0403    1.7078    3.4343 H         1 ACP         0.1082
     39 H3'         1.5906    1.4859    1.1353 H         1 ACP         0.0650
     40 HO3'        2.6839   -0.1150    2.2479 H         1 ACP         0.4300
     41 H2'        -0.0017    0.0018    0.0005 H         1 ACP         0.0785
     42 HO2'        2.0953   -0.9375    0.0709 H         1 ACP         0.4275
     43 H1'        -0.1998   -1.6319    2.6178 H         1 ACP         0.1009
     44 H8         -2.4576   -0.0639   -0.0831 H         1 ACP         0.1067
     45 HN61       -5.2371   -3.9234   -0.8448 H         1 ACP         0.4213
     46 HN62       -5.2909   -5.5485   -0.2160 H         1 ACP         0.4213
     47 H2         -1.8433   -5.7650    2.8259 H         1 ACP         0.0365
@<TRIPOS>BOND
     1    1    2 2
     2    1    3 1
     3    1    4 1
     4    1    8 1
     5    3   32 1
     6    4   33 1
     7    5    6 2
     8    5    7 1
     9    5    8 1
    10    5   12 1
    11    8   34 1
    12    8   35 1
    13    9   10 2
    14    9   11 1
    15    9   12 1
    16    9   13 1
    17   13   14 1
    18   14   15 1
    19   14   36 1
    20   14   37 1
    21   15   16 1
    22   15   17 1
    23   15   38 1
    24   16   21 1
    25   17   18 1
    26   17   19 1
    27   17   39 1
    28   18   40 1
    29   19   20 1
    30   19   21 1
    31   19   41 1
    32   20   42 1
    33   21   22 1
    34   21   43 1
    35   22   23 ar
    36   22   31 ar
    37   23   24 ar
    38   23   44 1
    39   24   25 ar
    40   25   26 ar
    41   25   31 ar
    42   26   27 1
    43   26   28 ar
    44   27   45 1
    45   27   46 1
    46   28   29 ar
    47   29   30 ar
    48   29   47 1
    49   30   31 ar
@<TRIPOS>SUBSTRUCTURE
     1 ACP         1 GROUP 0 A     ****
@<TRIPOS>MOLECULE
[[5-(6-aminopurin-9-yl)-3,4-dihydroxy-tetrahydrofuran-2-yl]methoxy-oxido-phosphoryl]oxy-(phosphonomethyl)phosphinate
   47    49     1     0     0
SMALL
USER_CHARGES

@<TRIPOS>ATOM
      1 PG         -3.8111    6.9049    0.1308 P.3       1 ACP         1.6478
      2 O1G        -3.3598    8.2536   -0.3432 O.2       1 ACP        -0.9103
      3 O2G        -2.9956    5.6482   -0.4739 O.3       1 ACP        -0.7989
      4 O3G        -5.3540    6.5415   -0.1810 O.3       1 ACP        -0.7989
      5 PB         -2.0832    6.7718    2.8375 P.3       1 ACP         1.4947
      6 O1B        -2.3858    6.5102    4.2948 O.co2     1 ACP        -0.8554
      7 O2B        -1.3813    8.0263    2.3715 O.co2     1 ACP        -0.8554
      8 C3B        -3.6835    6.6611    1.9168 C.3       1 ACP        -0.6550
      9 PA          0.0332    4.7082    2.5761 P.3       1 ACP         1.5921
     10 O1A        -0.1148    4.1078    3.9574 O.co2     1 ACP        -0.8561
     11 O2A         1.1835    5.6391    2.2595 O.co2     1 ACP        -0.8561
     12 O3A        -1.3627    5.4617    2.1868 O.3       1 ACP        -0.8166
     13 O5'         0.0182    3.5132    1.4596 O.3       1 ACP        -0.5737
     14 C5'        -0.8811    2.4285    1.6206 C.3       1 ACP         0.2197
     15 C4'        -0.1994    1.3333    2.4288 C.3       1 ACP         0.0944
     16 O4'        -1.1285    0.2356    2.5840 O.3       1 ACP        -0.4017
     17 C3'         1.0324    0.7610    1.7344 C.3       1 ACP         0.0859
     18 O3'         1.9175    0.2377    2.7247 O.3       1 ACP        -0.5941
     19 C2'         0.4468   -0.3802    0.9263 C.3       1 ACP         0.0924
     20 O2'         1.3993   -1.3703    0.5961 O.3       1 ACP        -0.5928
     21 C1'        -0.6159   -0.9100    1.8769 C.3       1 ACP         0.3967
     22 N9         -1.7127   -1.6108    1.2130 N.pl3     1 ACP        -0.6763
     23 C8         -2.8641   -1.0399    0.7392 C.ar      1 ACP         0.5586
     24 N7         -3.6659   -1.9257    0.1858 N.2       1 ACP        -0.5795
     25 C5         -3.0053   -3.1223    0.3069 C.ar      1 ACP        -0.2116
     26 C6         -3.3321   -4.4178   -0.0813 C.ar      1 ACP         0.7185
     27 N6         -4.5476   -4.6866   -0.7335 N.pl3     1 ACP        -0.9442
     28 N1         -2.4608   -5.4225    0.1773 N.ar      1 ACP        -0.8040
     29 C2         -1.3053   -5.1020    0.8081 C.ar      1 ACP         0.6560
     30 N3         -0.8788   -3.8921    1.2315 N.ar      1 ACP        -0.7058
     31 C4         -1.7870   -2.9477    0.9438 C.ar      1 ACP         0.5729
     32 HOG2       -2.9892    5.5087   -1.4448 H         1 ACP         0.4440
     33 HOG3       -5.6581    6.5199   -1.1132 H         1 ACP         0.4440
     34 H3B1       -4.3506    7.3849    2.3982 H         1 ACP         0.1084
     35 H3B2       -4.0845    5.6642    2.1328 H         1 ACP         0.1084
     36 H5'1       -1.7769    2.7852    2.1386 H         1 ACP         0.0281
     37 H5'2       -1.1652    2.0544    0.6320 H         1 ACP         0.0281
     38 H4'         0.0403    1.7078    3.4343 H         1 ACP         0.1082
     39 H3'         1.5906    1.4859    1.1353 H         1 ACP         0.0650
     40 HO3'        2.6839   -0.1150    2.2479 H         1 ACP         0.4300
     41 H2'        -0.0017    0.0018    0.0005 H         1 ACP         0.0785
     42 HO2'        2.0953   -0.9375    0.0709 H         1 ACP         0.4275
     43 H1'        -0.1998   -1.6319    2.6178 H         1 ACP         0.1009
     44 H8         -3.0609    0.0200    0.8250 H         1 ACP         0.1067
     45 HN61       -5.2046   -3.9433   -0.8775 H         1 ACP         0.4213
     46 HN62       -4.7849   -5.6332   -0.9625 H         1 ACP         0.4213
     47 H2         -0.6318   -5.9307    0.9993 H         1 ACP         0.0365
@<TRIPOS>BOND
     1    1    2 2
     2    1    3 1
     3    1    4 1
     4    1    8 1
     5    3   32 1
     6    4   33 1
     7    5    6 2
     8    5    7 1
     9    5    8 1
    10    5   12 1
    11    8   34 1
    12    8   35 1
    13    9   10 2
    14    9   11 1
    15    9   12 1
    16    9   13 1
    17   13   14 1
    18   14   15 1
    19   14   36 1
    20   14   37 1
    21   15   16 1
    22   15   17 1
    23   15   38 1
    24   16   21 1
    25   17   18 1
    26   17   19 1
    27   17   39 1
    28   18   40 1
    29   19   20 1
    30   19   21 1
    31   19   41 1
    32   20   42 1
    33   21   22 1
    34   21   43 1
    35   22   23 ar
    36   22   31 ar
    37   23   24 ar
    38   23   44 1
    39   24   25 ar
    40   25   26 ar
    41   25   31 ar
    42   26   27 1
    43   26   28 ar
    44   27   45 1
    45   27   46 1
    46   28   29 ar
    47   29   30 ar
    48   29   47 1
    49   30   31 ar
@<TRIPOS>SUBSTRUCTURE
     1 ACP         1 GROUP 0 A     ****
@<TRIPOS>MOLECULE
[[5-(6-aminopurin-9-yl)-3,4-dihydroxy-tetrahydrofuran-2-yl]methoxy-oxido-phosphoryl]oxy-(phosphonomethyl)phosphinate
   47    49     1     0     0
SMALL
USER_CHARGES

@<TRIPOS>ATOM
      1 PG          7.9123    2.6291   -4.4550 P.3       1 ACP         1.6478
      2 O1G         8.5737    3.8765   -4.9589 O.2       1 ACP        -0.9103
      3 O2G         8.5925    1.9614   -3.1505 O.3       1 ACP        -0.7989
      4 O3G         7.8385    1.4090   -5.5111 O.3       1 ACP        -0.7989
      5 PB          5.6656    4.0141   -2.6207 P.3       1 ACP         1.4947
      6 O1B         4.1626    3.9132   -2.5011 O.co2     1 ACP        -0.8554
      7 O2B         6.3693    5.3282   -2.8686 O.co2     1 ACP        -0.8554
      8 C3B         6.1889    2.8478   -3.9575 C.3       1 ACP        -0.6550
      9 PA          6.2485    3.4955    0.2424 P.3       1 ACP         1.5921
     10 O1A         6.5918    4.9420    0.5255 O.co2     1 ACP        -0.8561
     11 O2A         6.9748    2.3768    0.9573 O.co2     1 ACP        -0.8561
     12 O3A         6.3651    3.2411   -1.3667 O.3       1 ACP        -0.8166
     13 O5'         4.6404    3.2702    0.4379 O.3       1 ACP        -0.5737
     14 C5'         4.0922    1.9801    0.2227 C.3       1 ACP         0.2197
     15 C4'         2.5944    2.0310    0.4653 C.3       1 ACP         0.0944
     16 O4'         1.9327    2.5740   -0.6889 O.3       1 ACP        -0.4017
     17 C3'         1.9685    0.6634    0.6767 C.3       1 ACP         0.0859
     18 O3'         2.1425    0.1975    1.9977 O.3       1 ACP        -0.5941
     19 C2'         0.5176    0.9128    0.3099 C.3       1 ACP         0.0924
     20 O2'        -0.2103    1.4454    1.4152 O.3       1 ACP        -0.5928
     21 C1'         0.6219    1.9765   -0.7844 C.3       1 ACP         0.3967
     22 N9          0.4237    1.4496   -2.1357 N.pl3     1 ACP        -0.6763
     23 C8          1.4026    0.9717   -2.9660 C.ar      1 ACP         0.5586
     24 N7          0.9183    0.5619   -4.1197 N.2       1 ACP        -0.5795
     25 C5         -0.4330    0.7845   -4.0331 C.ar      1 ACP        -0.2116
     26 C6         -1.4794    0.5615   -4.9225 C.ar      1 ACP         0.7185
     27 N6         -1.2378    0.0044   -6.1899 N.pl3     1 ACP        -0.9442
     28 N1         -2.7406    0.8885   -4.5512 N.ar      1 ACP        -0.8040
     29 C2         -2.9113    1.4216   -3.3172 C.ar      1 ACP         0.6560
     30 N3         -1.9824    1.6843   -2.3721 N.ar      1 ACP        -0.7058
     31 C4         -0.7613    1.3370   -2.8054 C.ar      1 ACP         0.5729
     32 HOG2        9.5266    1.6664   -3.2003 H         1 ACP         0.4440
     33 HOG3        8.6733    1.0415   -5.8717 H         1 ACP         0.4440
     34 H3B1        5.6230    3.1469   -4.8470 H         1 ACP         0.1084
     35 H3B2        5.8151    1.8621   -3.6577 H         1 ACP         0.1084
     36 H5'1        4.3030    1.6732   -0.8066 H         1 ACP         0.0281
     37 H5'2        4.5679    1.2741    0.9106 H         1 ACP         0.0281
     38 H4'         2.3751    2.7029    1.3156 H         1 ACP         0.1082
     39 H3'         2.4336   -0.1217   -0.0015 H         1 ACP         0.0650
     40 HO3'        1.7160   -0.6716    2.0397 H         1 ACP         0.4300
     41 H2'         0.0316    0.0155   -0.0339 H         1 ACP         0.0785
     42 HO2'       -0.1608    0.7921    2.1351 H         1 ACP         0.4275
     43 H1'        -0.1474    2.7798   -0.6651 H         1 ACP         0.1009
     44 H8          2.4442    0.9470   -2.6763 H         1 ACP         0.1067
     45 HN61       -0.2955   -0.1901   -6.4713 H         1 ACP         0.4213
     46 HN62       -1.9987   -0.1045   -6.8334 H         1 ACP         0.4213
     47 H2         -3.9335    1.6716   -3.0534 H         1 ACP         0.0365
@<TRIPOS>BOND
     1    1    2 2
     2    1    3 1
     3    1    4 1
     4    1    8 1
     5    3   32 1
     6    4   33 1
     7    5    6 2
     8    5    7 1
     9    5    8 1
    10    5   12 1
    11    8   34 1
    12    8   35 1
    13    9   10 2
    14    9   11 1
    15    9   12 1
    16    9   13 1
    17   13   14 1
    18   14   15 1
    19   14   36 1
    20   14   37 1
    21   15   16 1
    22   15   17 1
    23   15   38 1
    24   16   21 1
    25   17   18 1
    26   17   19 1
    27   17   39 1
    28   18   40 1
    29   19   20 1
    30   19   21 1
    31   19   41 1
    32   20   42 1
    33   21   22 1
    34   21   43 1
    35   22   23 ar
    36   22   31 ar
    37   23   24 ar
    38   23   44 1
    39   24   25 ar
    40   25   26 ar
    41   25   31 ar
    42   26   27 1
    43   26   28 ar
    44   27   45 1
    45   27   46 1
    46   28   29 ar
    47   29   30 ar
    48   29   47 1
    49   30   31 ar
@<TRIPOS>SUBSTRUCTURE
     1 ACP         1 GROUP 0 A     ****
@<TRIPOS>MOLECULE
[[5-(6-aminopurin-9-yl)-3,4-dihydroxy-tetrahydrofuran-2-yl]methoxy-oxido-phosphoryl]oxy-(phosphonomethyl)phosphinate
   47    49     1     0     0
SMALL
USER_CHARGES

@<TRIPOS>ATOM
      1 PG         -2.5654    4.3875   -3.0224 P.3       1 ACP         1.6478
      2 O1G        -3.5508    3.9653   -1.9746 O.2       1 ACP        -0.9103
      3 O2G        -3.2005    5.1039   -4.3239 O.3       1 ACP        -0.7989
      4 O3G        -1.6642    3.2000   -3.6448 O.3       1 ACP        -0.7989
      5 PB         -0.1571    5.2323   -1.0688 P.3       1 ACP         1.4947
      6 O1B         0.7024    6.4624   -0.8910 O.co2     1 ACP        -0.8554
      7 O2B         0.4337    3.8635   -1.3156 O.co2     1 ACP        -0.8554
      8 C3B        -1.3352    5.5817   -2.4512 C.3       1 ACP        -0.6550
      9 PA         -1.0481    5.0552    1.7563 P.3       1 ACP         1.5921
     10 O1A        -2.4051    4.8656    2.3989 O.co2     1 ACP        -0.8561
     11 O2A        -0.1393    6.1836    2.1932 O.co2     1 ACP        -0.8561
     12 O3A        -1.2504    5.1524    0.1385 O.3       1 ACP        -0.8166
     13 O5'        -0.2059    3.6558    1.8419 O.3       1 ACP        -0.5737
     14 C5'        -0.8811    2.4285    1.6206 C.3       1 ACP         0.2197
     15 C4'        -0.1994    1.3333    2.4288 C.3       1 ACP         0.0944
     16 O4'        -1.1285    0.2356    2.5840 O.3       1 ACP        -0.4017
     17 C3'         1.0324    0.7610    1.7344 C.3       1 ACP         0.0859
     18 O3'         1.9175    0.2377    2.7247 O.3       1 ACP        -0.5941
     19 C2'         0.4468   -0.3802    0.9263 C.3       1 ACP         0.0924
     20 O2'         1.3993   -1.3703    0.5961 O.3       1 ACP        -0.5928
     21 C1'        -0.6159   -0.9100    1.8769 C.3       1 ACP         0.3967
     22 N9         -1.7127   -1.6108    1.2130 N.pl3     1 ACP        -0.6763
     23 C8         -2.0877   -2.9101    1.4304 C.ar      1 ACP         0.5586
     24 N7         -3.1152   -3.2613    0.6857 N.2       1 ACP        -0.5795
     25 C5         -3.4186   -2.1409   -0.0462 C.ar      1 ACP        -0.2116
     26 C6         -4.3953   -1.8809   -1.0023 C.ar      1 ACP         0.7185
     27 N6         -5.3118   -2.8767   -1.3812 N.pl3     1 ACP        -0.9442
     28 N1         -4.4538   -0.6507   -1.5667 N.ar      1 ACP        -0.8040
     29 C2         -3.5442    0.2679   -1.1609 C.ar      1 ACP         0.6560
     30 N3         -2.5561    0.1361   -0.2491 N.ar      1 ACP        -0.7058
     31 C4         -2.5568   -1.1019    0.2674 C.ar      1 ACP         0.5729
     32 HOG2       -3.8481    4.6093   -4.8698 H         1 ACP         0.4440
     33 HOG3       -2.1097    2.4547   -4.1010 H         1 ACP         0.4440
     34 H3B1       -0.7097    5.8492   -3.3103 H         1 ACP         0.1084
     35 H3B2       -1.8798    6.4866   -2.1585 H         1 ACP         0.1084
     36 H5'1       -1.9255    2.5383    1.9294 H         1 ACP         0.0281
     37 H5'2       -0.8472    2.1934    0.5521 H         1 ACP         0.0281
     38 H4'         0.0403    1.7078    3.4343 H         1 ACP         0.1082
     39 H3'         1.5906    1.4859    1.1353 H         1 ACP         0.0650
     40 HO3'        2.6839   -0.1150    2.2479 H         1 ACP         0.4300
     41 H2'        -0.0017    0.0018    0.0005 H         1 ACP         0.0785
     42 HO2'        2.0953   -0.9375    0.0709 H         1 ACP         0.4275
     43 H1'        -0.1998   -1.6319    2.6178 H         1 ACP         0.1009
     44 H8         -1.5778   -3.5473    2.1399 H         1 ACP         0.1067
     45 HN61       -6.0371   -2.6553   -2.0368 H         1 ACP         0.4213
     46 HN62       -5.2887   -3.7677   -0.9225 H         1 ACP         0.4213
     47 H2         -3.6201    1.2414   -1.6336 H         1 ACP         0.0365
@<TRIPOS>BOND
     1    1    2 2
     2    1    3 1
     3    1    4 1
     4    1    8 1
     5    3   32 1
     6    4   33 1
     7    5    6 2
     8    5    7 1
     9    5    8 1
    10    5   12 1
    11    8   34 1
    12    8   35 1
    13    9   10 2
    14    9   11 1
    15    9   12 1
    16    9   13 1
    17   13   14 1
    18   14   15 1
    19   14   36 1
    20   14   37 1
    21   15   16 1
    22   15   17 1
    23   15   38 1
    24   16   21 1
    25   17   18 1
    26   17   19 1
    27   17   39 1
    28   18   40 1
    29   19   20 1
    30   19   21 1
    31   19   41 1
    32   20   42 1
    33   21   22 1
    34   21   43 1
    35   22   23 ar
    36   22   31 ar
    37   23   24 ar
    38   23   44 1
    39   24   25 ar
    40   25   26 ar
    41   25   31 ar
    42   26   27 1
    43   26   28 ar
    44   27   45 1
    45   27   46 1
    46   28   29 ar
    47   29   30 ar
    48   29   47 1
    49   30   31 ar
@<TRIPOS>SUBSTRUCTURE
     1 ACP         1 GROUP 0 A     ****
@<TRIPOS>MOLECULE
[[5-(6-aminopurin-9-yl)-3,4-dihydroxy-tetrahydrofuran-2-yl]methoxy-oxido-phosphoryl]oxy-(phosphonomethyl)phosphinate
   47    49     1     0     0
SMALL
USER_CHARGES

@<TRIPOS>ATOM
      1 PG         -0.1669    3.1709   -3.5920 P.3       1 ACP         1.6478
      2 O1G         0.3903    1.7829   -3.4899 O.2       1 ACP        -0.9103
      3 O2G        -1.6154    3.3891   -2.9104 O.3       1 ACP        -0.7989
      4 O3G        -0.3670    3.7283   -5.0950 O.3       1 ACP        -0.7989
      5 PB          1.2784    4.4327   -1.0135 P.3       1 ACP         1.4947
      6 O1B         2.1376    5.6473   -0.7490 O.co2     1 ACP        -0.8554
      7 O2B         1.7300    3.0332   -0.6654 O.co2     1 ACP        -0.8554
      8 C3B         0.8533    4.4431   -2.8135 C.3       1 ACP        -0.6550
      9 PA         -0.7382    5.0055    1.0868 P.3       1 ACP         1.5921
     10 O1A        -2.2516    5.0177    1.0865 O.co2     1 ACP        -0.8561
     11 O2A         0.0419    6.1870    1.6208 O.co2     1 ACP        -0.8561
     12 O3A        -0.2227    4.6896   -0.4304 O.3       1 ACP        -0.8166
     13 O5'        -0.2059    3.6558    1.8419 O.3       1 ACP        -0.5737
     14 C5'        -0.8811    2.4285    1.6206 C.3       1 ACP         0.2197
     15 C4'        -0.1994    1.3333    2.4288 C.3       1 ACP         0.0944
     16 O4'        -1.1285    0.2356    2.5840 O.3       1 ACP        -0.4017
     17 C3'         1.0324    0.7610    1.7344 C.3       1 ACP         0.0859
     18 O3'         1.9175    0.2377    2.7247 O.3       1 ACP        -0.5941
     19 C2'         0.4468   -0.3802    0.9263 C.3       1 ACP         0.0924
     20 O2'         1.3993   -1.3703    0.5961 O.3       1 ACP        -0.5928
     21 C1'        -0.6159   -0.9100    1.8769 C.3       1 ACP         0.3967
     22 N9         -1.7127   -1.6108    1.2130 N.pl3     1 ACP        -0.6763
     23 C8         -1.7712   -2.9546    0.9544 C.ar      1 ACP         0.5586
     24 N7         -2.8883   -3.2948    0.3462 N.2       1 ACP        -0.5795
     25 C5         -3.5834   -2.1202    0.2043 C.ar      1 ACP        -0.2116
     26 C6         -4.8225   -1.8251   -0.3554 C.ar      1 ACP         0.7185
     27 N6         -5.6154   -2.8394   -0.9189 N.pl3     1 ACP        -0.9442
     28 N1         -5.2589   -0.5425   -0.3507 N.ar      1 ACP        -0.8040
     29 C2         -4.4510    0.3913    0.2069 C.ar      1 ACP         0.6560
     30 N3         -3.2368    0.2296    0.7767 N.ar      1 ACP        -0.7058
     31 C4         -2.8684   -1.0596    0.7376 C.ar      1 ACP         0.5729
     32 HOG2       -2.3767    2.8617   -3.2332 H         1 ACP         0.4440
     33 HOG3       -0.9638    3.2453   -5.7054 H         1 ACP         0.4440
     34 H3B1        1.8128    4.4673   -3.3422 H         1 ACP         0.1084
     35 H3B2        0.3619    5.4050   -2.9992 H         1 ACP         0.1084
     36 H5'1       -1.9255    2.5383    1.9294 H         1 ACP         0.0281
     37 H5'2       -0.8472    2.1934    0.5521 H         1 ACP         0.0281
     38 H4'         0.0403    1.7078    3.4343 H         1 ACP         0.1082
     39 H3'         1.5906    1.4859    1.1353 H         1 ACP         0.0650
     40 HO3'        2.6839   -0.1150    2.2479 H         1 ACP         0.4300
     41 H2'        -0.0017    0.0018    0.0005 H         1 ACP         0.0785
     42 HO2'        0.9369   -2.0558    0.0825 H         1 ACP         0.4275
     43 H1'        -0.1998   -1.6319    2.6178 H         1 ACP         0.1009
     44 H8         -0.9745   -3.6312    1.2318 H         1 ACP         0.1067
     45 HN61       -5.2619   -3.7766   -0.9586 H         1 ACP         0.4213
     46 HN62       -6.4834   -2.5990   -1.3590 H         1 ACP         0.4213
     47 H2         -4.8317    1.4071    0.1930 H         1 ACP         0.0365
@<TRIPOS>BOND
     1    1    2 2
     2    1    3 1
     3    1    4 1
     4    1    8 1
     5    3   32 1
     6    4   33 1
     7    5    6 2
     8    5    7 1
     9    5    8 1
    10    5   12 1
    11    8   34 1
    12    8   35 1
    13    9   10 2
    14    9   11 1
    15    9   12 1
    16    9   13 1
    17   13   14 1
    18   14   15 1
    19   14   36 1
    20   14   37 1
    21   15   16 1
    22   15   17 1
    23   15   38 1
    24   16   21 1
    25   17   18 1
    26   17   19 1
    27   17   39 1
    28   18   40 1
    29   19   20 1
    30   19   21 1
    31   19   41 1
    32   20   42 1
    33   21   22 1
    34   21   43 1
    35   22   23 ar
    36   22   31 ar
    37   23   24 ar
    38   23   44 1
    39   24   25 ar
    40   25   26 ar
    41   25   31 ar
    42   26   27 1
    43   26   28 ar
    44   27   45 1
    45   27   46 1
    46   28   29 ar
    47   29   30 ar
    48   29   47 1
    49   30   31 ar
@<TRIPOS>SUBSTRUCTURE
     1 ACP         1 GROUP 0 A     ****
@<TRIPOS>MOLECULE
[[5-(6-aminopurin-9-yl)-3,4-dihydroxy-tetrahydrofuran-2-yl]methoxy-oxido-phosphoryl]oxy-(phosphonomethyl)phosphinate
   47    49     1     0     0
SMALL
USER_CHARGES

@<TRIPOS>ATOM
      1 PG         -4.4021    2.9671    4.4920 P.3       1 ACP         1.6478
      2 O1G        -3.8023    1.5961    4.5807 O.2       1 ACP        -0.9103
      3 O2G        -5.8264    3.1507    5.2322 O.3       1 ACP        -0.7989
      4 O3G        -4.6803    3.5062    2.9948 O.3       1 ACP        -0.7989
      5 PB         -1.6773    4.6660    4.6301 P.3       1 ACP         1.4947
      6 O1B        -0.8438    3.4186    4.8111 O.co2     1 ACP        -0.8554
      7 O2B        -1.2858    5.9934    5.2370 O.co2     1 ACP        -0.8554
      8 C3B        -3.3865    4.2737    5.2179 C.3       1 ACP        -0.6550
      9 PA         -1.0481    5.0552    1.7563 P.3       1 ACP         1.5921
     10 O1A        -0.1188    6.2188    2.0266 O.co2     1 ACP        -0.8561
     11 O2A        -1.8976    5.0221    0.5044 O.co2     1 ACP        -0.8561
     12 O3A        -2.0269    4.8631    3.0495 O.3       1 ACP        -0.8166
     13 O5'        -0.2059    3.6558    1.8419 O.3       1 ACP        -0.5737
     14 C5'        -0.8811    2.4285    1.6206 C.3       1 ACP         0.2197
     15 C4'        -0.1994    1.3333    2.4288 C.3       1 ACP         0.0944
     16 O4'        -1.1285    0.2356    2.5840 O.3       1 ACP        -0.4017
     17 C3'         1.0324    0.7610    1.7344 C.3       1 ACP         0.0859
     18 O3'         1.9175    0.2377    2.7247 O.3       1 ACP        -0.5941
     19 C2'         0.4468   -0.3802    0.9263 C.3       1 ACP         0.0924
     20 O2'         1.3993   -1.3703    0.5961 O.3       1 ACP        -0.5928
     21 C1'        -0.6159   -0.9100    1.8769 C.3       1 ACP         0.3967
     22 N9         -1.7127   -1.6108    1.2130 N.pl3     1 ACP        -0.6763
     23 C8         -1.7712   -2.9546    0.9544 C.ar      1 ACP         0.5586
     24 N7         -2.8883   -3.2948    0.3462 N.2       1 ACP        -0.5795
     25 C5         -3.5834   -2.1202    0.2043 C.ar      1 ACP        -0.2116
     26 C6         -4.8225   -1.8251   -0.3554 C.ar      1 ACP         0.7185
     27 N6         -5.6154   -2.8394   -0.9189 N.pl3     1 ACP        -0.9442
     28 N1         -5.2589   -0.5425   -0.3507 N.ar      1 ACP        -0.8040
     29 C2         -4.4510    0.3913    0.2069 C.ar      1 ACP         0.6560
     30 N3         -3.2368    0.2296    0.7767 N.ar      1 ACP        -0.7058
     31 C4         -2.8684   -1.0596    0.7376 C.ar      1 ACP         0.5729
     32 HOG2       -6.5853    2.5996    4.9454 H         1 ACP         0.4440
     33 HOG3       -5.2882    3.0018    2.4134 H         1 ACP         0.4440
     34 H3B1       -3.9475    5.2117    5.1385 H         1 ACP         0.1084
     35 H3B2       -3.2909    4.0482    6.2862 H         1 ACP         0.1084
     36 H5'1       -1.9255    2.5383    1.9294 H         1 ACP         0.0281
     37 H5'2       -0.8472    2.1934    0.5521 H         1 ACP         0.0281
     38 H4'         0.0403    1.7078    3.4343 H         1 ACP         0.1082
     39 H3'         1.5906    1.4859    1.1353 H         1 ACP         0.0650
     40 HO3'        2.1521    0.9800    3.3017 H         1 ACP         0.4300
     41 H2'        -0.0017    0.0018    0.0005 H         1 ACP         0.0785
     42 HO2'        0.9369   -2.0558    0.0825 H         1 ACP         0.4275
     43 H1'        -0.1998   -1.6319    2.6178 H         1 ACP         0.1009
     44 H8         -0.9745   -3.6312    1.2318 H         1 ACP         0.1067
     45 HN61       -5.2619   -3.7766   -0.9586 H         1 ACP         0.4213
     46 HN62       -6.4834   -2.5990   -1.3590 H         1 ACP         0.4213
     47 H2         -4.8317    1.4071    0.1930 H         1 ACP         0.0365
@<TRIPOS>BOND
     1    1    2 2
     2    1    3 1
     3    1    4 1
     4    1    8 1
     5    3   32 1
     6    4   33 1
     7    5    6 2
     8    5    7 1
     9    5    8 1
    10    5   12 1
    11    8   34 1
    12    8   35 1
    13    9   10 2
    14    9   11 1
    15    9   12 1
    16    9   13 1
    17   13   14 1
    18   14   15 1
    19   14   36 1
    20   14   37 1
    21   15   16 1
    22   15   17 1
    23   15   38 1
    24   16   21 1
    25   17   18 1
    26   17   19 1
    27   17   39 1
    28   18   40 1
    29   19   20 1
    30   19   21 1
    31   19   41 1
    32   20   42 1
    33   21   22 1
    34   21   43 1
    35   22   23 ar
    36   22   31 ar
    37   23   24 ar
    38   23   44 1
    39   24   25 ar
    40   25   26 ar
    41   25   31 ar
    42   26   27 1
    43   26   28 ar
    44   27   45 1
    45   27   46 1
    46   28   29 ar
    47   29   30 ar
    48   29   47 1
    49   30   31 ar
@<TRIPOS>SUBSTRUCTURE
     1 ACP         1 GROUP 0 A     ****
@<TRIPOS>MOLECULE
[[5-(6-aminopurin-9-yl)-3,4-dihydroxy-tetrahydrofuran-2-yl]methoxy-oxido-phosphoryl]oxy-(phosphonomethyl)phosphinate
   47    49     1     0     0
SMALL
USER_CHARGES

@<TRIPOS>ATOM
      1 PG          0.0742    6.9511   -0.2832 P.3       1 ACP         1.6478
      2 O1G        -0.0791    7.5240   -1.6601 O.2       1 ACP        -0.9103
      3 O2G         1.4410    7.3436    0.4836 O.3       1 ACP        -0.7989
      4 O3G         0.0398    5.3383   -0.1960 O.3       1 ACP        -0.7989
      5 PB         -1.2569    6.8883    2.6416 P.3       1 ACP         1.4947
      6 O1B        -2.4715    7.5171    3.2841 O.co2     1 ACP        -0.8554
      7 O2B         0.1347    7.0610    3.2048 O.co2     1 ACP        -0.8554
      8 C3B        -1.2131    7.4538    0.8811 C.3       1 ACP        -0.6550
      9 PA         -1.9154    4.0917    3.3841 P.3       1 ACP         1.5921
     10 O1A        -3.2739    4.3706    3.9902 O.co2     1 ACP        -0.8561
     11 O2A        -0.7157    3.8308    4.2687 O.co2     1 ACP        -0.8561
     12 O3A        -1.5461    5.3085    2.3591 O.3       1 ACP        -0.8166
     13 O5'        -2.0402    2.8619    2.3132 O.3       1 ACP        -0.5737
     14 C5'        -0.8811    2.4285    1.6206 C.3       1 ACP         0.2197
     15 C4'        -0.1994    1.3333    2.4288 C.3       1 ACP         0.0944
     16 O4'        -1.1285    0.2356    2.5840 O.3       1 ACP        -0.4017
     17 C3'         1.0324    0.7610    1.7344 C.3       1 ACP         0.0859
     18 O3'         1.9175    0.2377    2.7247 O.3       1 ACP        -0.5941
     19 C2'         0.4468   -0.3802    0.9263 C.3       1 ACP         0.0924
     20 O2'         1.3993   -1.3703    0.5961 O.3       1 ACP        -0.5928
     21 C1'        -0.6159   -0.9100    1.8769 C.3       1 ACP         0.3967
     22 N9         -1.7127   -1.6108    1.2130 N.pl3     1 ACP        -0.6763
     23 C8         -2.8641   -1.0399    0.7392 C.ar      1 ACP         0.5586
     24 N7         -3.6659   -1.9257    0.1858 N.2       1 ACP        -0.5795
     25 C5         -3.0053   -3.1223    0.3069 C.ar      1 ACP        -0.2116
     26 C6         -3.3321   -4.4178   -0.0813 C.ar      1 ACP         0.7185
     27 N6         -4.5476   -4.6866   -0.7335 N.pl3     1 ACP        -0.9442
     28 N1         -2.4608   -5.4225    0.1773 N.ar      1 ACP        -0.8040
     29 C2         -1.3053   -5.1020    0.8081 C.ar      1 ACP         0.6560
     30 N3         -0.8788   -3.8921    1.2315 N.ar      1 ACP        -0.7058
     31 C4         -1.7870   -2.9477    0.9438 C.ar      1 ACP         0.5729
     32 HOG2        2.2998    7.0906    0.0830 H         1 ACP         0.4440
     33 HOG3        0.7141    4.8215   -0.6862 H         1 ACP         0.4440
     34 H3B1       -1.2115    8.5488    0.9238 H         1 ACP         0.1084
     35 H3B2       -2.1730    7.1525    0.4463 H         1 ACP         0.1084
     36 H5'1       -1.1771    2.0504    0.6370 H         1 ACP         0.0281
     37 H5'2       -0.2083    3.2816    1.4878 H         1 ACP         0.0281
     38 H4'         0.0403    1.7078    3.4343 H         1 ACP         0.1082
     39 H3'         1.5906    1.4859    1.1353 H         1 ACP         0.0650
     40 HO3'        2.6839   -0.1150    2.2479 H         1 ACP         0.4300
     41 H2'        -0.0017    0.0018    0.0005 H         1 ACP         0.0785
     42 HO2'        0.9369   -2.0558    0.0825 H         1 ACP         0.4275
     43 H1'        -0.1998   -1.6319    2.6178 H         1 ACP         0.1009
     44 H8         -3.0609    0.0200    0.8250 H         1 ACP         0.1067
     45 HN61       -5.2046   -3.9433   -0.8775 H         1 ACP         0.4213
     46 HN62       -4.7849   -5.6332   -0.9625 H         1 ACP         0.4213
     47 H2         -0.6318   -5.9307    0.9993 H         1 ACP         0.0365
@<TRIPOS>BOND
     1    1    2 2
     2    1    3 1
     3    1    4 1
     4    1    8 1
     5    3   32 1
     6    4   33 1
     7    5    6 2
     8    5    7 1
     9    5    8 1
    10    5   12 1
    11    8   34 1
    12    8   35 1
    13    9   10 2
    14    9   11 1
    15    9   12 1
    16    9   13 1
    17   13   14 1
    18   14   15 1
    19   14   36 1
    20   14   37 1
    21   15   16 1
    22   15   17 1
    23   15   38 1
    24   16   21 1
    25   17   18 1
    26   17   19 1
    27   17   39 1
    28   18   40 1
    29   19   20 1
    30   19   21 1
    31   19   41 1
    32   20   42 1
    33   21   22 1
    34   21   43 1
    35   22   23 ar
    36   22   31 ar
    37   23   24 ar
    38   23   44 1
    39   24   25 ar
    40   25   26 ar
    41   25   31 ar
    42   26   27 1
    43   26   28 ar
    44   27   45 1
    45   27   46 1
    46   28   29 ar
    47   29   30 ar
    48   29   47 1
    49   30   31 ar
@<TRIPOS>SUBSTRUCTURE
     1 ACP         1 GROUP 0 A     ****
@<TRIPOS>MOLECULE
[[5-(6-aminopurin-9-yl)-3,4-dihydroxy-tetrahydrofuran-2-yl]methoxy-oxido-phosphoryl]oxy-(phosphonomethyl)phosphinate
   47    49     1     0     0
SMALL
USER_CHARGES

@<TRIPOS>ATOM
      1 PG          3.6308    4.6358   -1.5062 P.3       1 ACP         1.6478
      2 O1G         3.3844    4.4502   -0.0392 O.2       1 ACP        -0.9103
      3 O2G         4.3841    3.4116   -2.2438 O.3       1 ACP        -0.7989
      4 O3G         4.5227    5.9235   -1.9014 O.3       1 ACP        -0.7989
      5 PB          0.7901    3.5852   -2.5817 P.3       1 ACP         1.4947
      6 O1B         1.4053    2.3211   -3.1359 O.co2     1 ACP        -0.8554
      7 O2B        -0.4115    4.2444   -3.2182 O.co2     1 ACP        -0.8554
      8 C3B         2.1323    4.8546   -2.4922 C.3       1 ACP        -0.6550
      9 PA         -0.0885    4.4445    0.1193 P.3       1 ACP         1.5921
     10 O1A        -1.5458    4.6741   -0.2187 O.co2     1 ACP        -0.8561
     11 O2A         0.8596    5.6133    0.2768 O.co2     1 ACP        -0.8561
     12 O3A         0.5414    3.4131   -0.9793 O.3       1 ACP        -0.8166
     13 O5'         0.0182    3.5132    1.4596 O.3       1 ACP        -0.5737
     14 C5'        -0.8811    2.4285    1.6206 C.3       1 ACP         0.2197
     15 C4'        -0.1994    1.3333    2.4288 C.3       1 ACP         0.0944
     16 O4'        -1.1285    0.2356    2.5840 O.3       1 ACP        -0.4017
     17 C3'         1.0324    0.7610    1.7344 C.3       1 ACP         0.0859
     18 O3'         1.9175    0.2377    2.7247 O.3       1 ACP        -0.5941
     19 C2'         0.4468   -0.3802    0.9263 C.3       1 ACP         0.0924
     20 O2'         1.3993   -1.3703    0.5961 O.3       1 ACP        -0.5928
     21 C1'        -0.6159   -0.9100    1.8769 C.3       1 ACP         0.3967
     22 N9         -1.7127   -1.6108    1.2130 N.pl3     1 ACP        -0.6763
     23 C8         -1.7712   -2.9546    0.9544 C.ar      1 ACP         0.5586
     24 N7         -2.8883   -3.2948    0.3462 N.2       1 ACP        -0.5795
     25 C5         -3.5834   -2.1202    0.2043 C.ar      1 ACP        -0.2116
     26 C6         -4.8225   -1.8251   -0.3554 C.ar      1 ACP         0.7185
     27 N6         -5.6154   -2.8394   -0.9189 N.pl3     1 ACP        -0.9442
     28 N1         -5.2589   -0.5425   -0.3507 N.ar      1 ACP        -0.8040
     29 C2         -4.4510    0.3913    0.2069 C.ar      1 ACP         0.6560
     30 N3         -3.2368    0.2296    0.7767 N.ar      1 ACP        -0.7058
     31 C4         -2.8684   -1.0596    0.7376 C.ar      1 ACP         0.5729
     32 HOG2        5.2794    3.1518   -1.9388 H         1 ACP         0.4440
     33 HOG3        5.4361    5.9944   -1.5512 H         1 ACP         0.4440
     34 H3B1        1.6444    5.7753   -2.1529 H         1 ACP         0.1084
     35 H3B2        2.4522    5.0252   -3.5265 H         1 ACP         0.1084
     36 H5'1       -1.7769    2.7852    2.1386 H         1 ACP         0.0281
     37 H5'2       -1.1652    2.0544    0.6320 H         1 ACP         0.0281
     38 H4'         0.0403    1.7078    3.4343 H         1 ACP         0.1082
     39 H3'         1.5906    1.4859    1.1353 H         1 ACP         0.0650
     40 HO3'        2.6839   -0.1150    2.2479 H         1 ACP         0.4300
     41 H2'        -0.0017    0.0018    0.0005 H         1 ACP         0.0785
     42 HO2'        2.0953   -0.9375    0.0709 H         1 ACP         0.4275
     43 H1'        -0.1998   -1.6319    2.6178 H         1 ACP         0.1009
     44 H8         -0.9745   -3.6312    1.2318 H         1 ACP         0.1067
     45 HN61       -5.2619   -3.7766   -0.9586 H         1 ACP         0.4213
     46 HN62       -6.4834   -2.5990   -1.3590 H         1 ACP         0.4213
     47 H2         -4.8317    1.4071    0.1930 H         1 ACP         0.0365
@<TRIPOS>BOND
     1    1    2 2
     2    1    3 1
     3    1    4 1
     4    1    8 1
     5    3   32 1
     6    4   33 1
     7    5    6 2
     8    5    7 1
     9    5    8 1
    10    5   12 1
    11    8   34 1
    12    8   35 1
    13    9   10 2
    14    9   11 1
    15    9   12 1
    16    9   13 1
    17   13   14 1
    18   14   15 1
    19   14   36 1
    20   14   37 1
    21   15   16 1
    22   15   17 1
    23   15   38 1
    24   16   21 1
    25   17   18 1
    26   17   19 1
    27   17   39 1
    28   18   40 1
    29   19   20 1
    30   19   21 1
    31   19   41 1
    32   20   42 1
    33   21   22 1
    34   21   43 1
    35   22   23 ar
    36   22   31 ar
    37   23   24 ar
    38   23   44 1
    39   24   25 ar
    40   25   26 ar
    41   25   31 ar
    42   26   27 1
    43   26   28 ar
    44   27   45 1
    45   27   46 1
    46   28   29 ar
    47   29   30 ar
    48   29   47 1
    49   30   31 ar
@<TRIPOS>SUBSTRUCTURE
     1 ACP         1 GROUP 0 A     ****
@<TRIPOS>MOLECULE
[[5-(6-aminopurin-9-yl)-3,4-dihydroxy-tetrahydrofuran-2-yl]methoxy-oxido-phosphoryl]oxy-(phosphonomethyl)phosphinate
   47    49     1     0     0
SMALL
USER_CHARGES

@<TRIPOS>ATOM
      1 PG         -3.4502    8.0037    2.8920 P.3       1 ACP         1.6478
      2 O1G        -2.9837    7.3436    4.1546 O.2       1 ACP        -0.9103
      3 O2G        -2.6059    9.3032    2.4354 O.3       1 ACP        -0.7989
      4 O3G        -4.9774    8.5301    2.9088 O.3       1 ACP        -0.7989
      5 PB         -1.8375    6.1739    0.7989 P.3       1 ACP         1.4947
      6 O1B        -0.8896    7.3009    0.4597 O.co2     1 ACP        -0.8554
      7 O2B        -2.2309    5.1191   -0.2091 O.co2     1 ACP        -0.8554
      8 C3B        -3.3971    6.9409    1.4315 C.3       1 ACP        -0.6550
      9 PA          0.0332    4.7082    2.5761 P.3       1 ACP         1.5921
     10 O1A        -0.1148    4.1078    3.9574 O.co2     1 ACP        -0.8561
     11 O2A         1.1835    5.6391    2.2595 O.co2     1 ACP        -0.8561
     12 O3A        -1.3627    5.4617    2.1868 O.3       1 ACP        -0.8166
     13 O5'         0.0182    3.5132    1.4596 O.3       1 ACP        -0.5737
     14 C5'        -0.8811    2.4285    1.6206 C.3       1 ACP         0.2197
     15 C4'        -0.1994    1.3333    2.4288 C.3       1 ACP         0.0944
     16 O4'        -1.1285    0.2356    2.5840 O.3       1 ACP        -0.4017
     17 C3'         1.0324    0.7610    1.7344 C.3       1 ACP         0.0859
     18 O3'         1.9175    0.2377    2.7247 O.3       1 ACP        -0.5941
     19 C2'         0.4468   -0.3802    0.9263 C.3       1 ACP         0.0924
     20 O2'         1.3993   -1.3703    0.5961 O.3       1 ACP        -0.5928
     21 C1'        -0.6159   -0.9100    1.8769 C.3       1 ACP         0.3967
     22 N9         -1.7127   -1.6108    1.2130 N.pl3     1 ACP        -0.6763
     23 C8         -2.8641   -1.0399    0.7392 C.ar      1 ACP         0.5586
     24 N7         -3.6659   -1.9257    0.1858 N.2       1 ACP        -0.5795
     25 C5         -3.0053   -3.1223    0.3069 C.ar      1 ACP        -0.2116
     26 C6         -3.3321   -4.4178   -0.0813 C.ar      1 ACP         0.7185
     27 N6         -4.5476   -4.6866   -0.7335 N.pl3     1 ACP        -0.9442
     28 N1         -2.4608   -5.4225    0.1773 N.ar      1 ACP        -0.8040
     29 C2         -1.3053   -5.1020    0.8081 C.ar      1 ACP         0.6560
     30 N3         -0.8788   -3.8921    1.2315 N.ar      1 ACP        -0.7058
     31 C4         -1.7870   -2.9477    0.9438 C.ar      1 ACP         0.5729
     32 HOG2       -2.5582   10.0749    3.0389 H         1 ACP         0.4440
     33 HOG3       -5.2419    9.1998    3.5748 H         1 ACP         0.4440
     34 H3B1       -4.0863    6.1065    1.6040 H         1 ACP         0.1084
     35 H3B2       -3.8037    7.5236    0.5970 H         1 ACP         0.1084
     36 H5'1       -1.7769    2.7852    2.1386 H         1 ACP         0.0281
     37 H5'2       -1.1652    2.0544    0.6320 H         1 ACP         0.0281
     38 H4'         0.0403    1.7078    3.4343 H         1 ACP         0.1082
     39 H3'         1.5906    1.4859    1.1353 H         1 ACP         0.0650
     40 HO3'        2.6839   -0.1150    2.2479 H         1 ACP         0.4300
     41 H2'        -0.0017    0.0018    0.0005 H         1 ACP         0.0785
     42 HO2'        2.0953   -0.9375    0.0709 H         1 ACP         0.4275
     43 H1'        -0.1998   -1.6319    2.6178 H         1 ACP         0.1009
     44 H8         -3.0609    0.0200    0.8250 H         1 ACP         0.1067
     45 HN61       -5.2046   -3.9433   -0.8775 H         1 ACP         0.4213
     46 HN62       -4.7849   -5.6332   -0.9625 H         1 ACP         0.4213
     47 H2         -0.6318   -5.9307    0.9993 H         1 ACP         0.0365
@<TRIPOS>BOND
     1    1    2 2
     2    1    3 1
     3    1    4 1
     4    1    8 1
     5    3   32 1
     6    4   33 1
     7    5    6 2
     8    5    7 1
     9    5    8 1
    10    5   12 1
    11    8   34 1
    12    8   35 1
    13    9   10 2
    14    9   11 1
    15    9   12 1
    16    9   13 1
    17   13   14 1
    18   14   15 1
    19   14   36 1
    20   14   37 1
    21   15   16 1
    22   15   17 1
    23   15   38 1
    24   16   21 1
    25   17   18 1
    26   17   19 1
    27   17   39 1
    28   18   40 1
    29   19   20 1
    30   19   21 1
    31   19   41 1
    32   20   42 1
    33   21   22 1
    34   21   43 1
    35   22   23 ar
    36   22   31 ar
    37   23   24 ar
    38   23   44 1
    39   24   25 ar
    40   25   26 ar
    41   25   31 ar
    42   26   27 1
    43   26   28 ar
    44   27   45 1
    45   27   46 1
    46   28   29 ar
    47   29   30 ar
    48   29   47 1
    49   30   31 ar
@<TRIPOS>SUBSTRUCTURE
     1 ACP         1 GROUP 0 A     ****
@<TRIPOS>MOLECULE
[[5-(6-aminopurin-9-yl)-3,4-dihydroxy-tetrahydrofuran-2-yl]methoxy-oxido-phosphoryl]oxy-(phosphonomethyl)phosphinate
   47    49     1     0     0
SMALL
USER_CHARGES

@<TRIPOS>ATOM
      1 PG         -2.7663    6.6142   -2.6485 P.3       1 ACP         1.6478
      2 O1G        -3.8862    6.7302   -3.6383 O.2       1 ACP        -0.9103
      3 O2G        -3.1996    6.7157   -1.0953 O.3       1 ACP        -0.7989
      4 O3G        -1.5990    7.7219   -2.7899 O.3       1 ACP        -0.7989
      5 PB         -0.4377    4.6553   -1.6141 P.3       1 ACP         1.4947
      6 O1B         0.6262    5.6999   -1.8599 O.co2     1 ACP        -0.8554
      7 O2B        -0.1616    3.1754   -1.7459 O.co2     1 ACP        -0.8554
      8 C3B        -1.8623    5.0514   -2.7251 C.3       1 ACP        -0.6550
      9 PA         -0.5788    5.0300    1.3263 P.3       1 ACP         1.5921
     10 O1A        -1.7338    5.2023    2.2890 O.co2     1 ACP        -0.8561
     11 O2A         0.5830    5.9997    1.3349 O.co2     1 ACP        -0.8561
     12 O3A        -1.1769    4.9545   -0.1916 O.3       1 ACP        -0.8166
     13 O5'         0.0182    3.5132    1.4596 O.3       1 ACP        -0.5737
     14 C5'        -0.8811    2.4285    1.6206 C.3       1 ACP         0.2197
     15 C4'        -0.1994    1.3333    2.4288 C.3       1 ACP         0.0944
     16 O4'        -1.1285    0.2356    2.5840 O.3       1 ACP        -0.4017
     17 C3'         1.0324    0.7610    1.7344 C.3       1 ACP         0.0859
     18 O3'         1.9175    0.2377    2.7247 O.3       1 ACP        -0.5941
     19 C2'         0.4468   -0.3802    0.9263 C.3       1 ACP         0.0924
     20 O2'         1.3993   -1.3703    0.5961 O.3       1 ACP        -0.5928
     21 C1'        -0.6159   -0.9100    1.8769 C.3       1 ACP         0.3967
     22 N9         -1.7127   -1.6108    1.2130 N.pl3     1 ACP        -0.6763
     23 C8         -1.7712   -2.9546    0.9544 C.ar      1 ACP         0.5586
     24 N7         -2.8883   -3.2948    0.3462 N.2       1 ACP        -0.5795
     25 C5         -3.5834   -2.1202    0.2043 C.ar      1 ACP        -0.2116
     26 C6         -4.8225   -1.8251   -0.3554 C.ar      1 ACP         0.7185
     27 N6         -5.6154   -2.8394   -0.9189 N.pl3     1 ACP        -0.9442
     28 N1         -5.2589   -0.5425   -0.3507 N.ar      1 ACP        -0.8040
     29 C2         -4.4510    0.3913    0.2069 C.ar      1 ACP         0.6560
     30 N3         -3.2368    0.2296    0.7767 N.ar      1 ACP        -0.7058
     31 C4         -2.8684   -1.0596    0.7376 C.ar      1 ACP         0.5729
     32 HOG2       -3.6413    7.5318   -0.7777 H         1 ACP         0.4440
     33 HOG3       -1.8301    8.6705   -2.6956 H         1 ACP         0.4440
     34 H3B1       -2.5862    4.2425   -2.5750 H         1 ACP         0.1084
     35 H3B2       -1.4805    4.9527   -3.7477 H         1 ACP         0.1084
     36 H5'1       -1.7769    2.7852    2.1386 H         1 ACP         0.0281
     37 H5'2       -1.1652    2.0544    0.6320 H         1 ACP         0.0281
     38 H4'         0.0403    1.7078    3.4343 H         1 ACP         0.1082
     39 H3'         1.5906    1.4859    1.1353 H         1 ACP         0.0650
     40 HO3'        2.6839   -0.1150    2.2479 H         1 ACP         0.4300
     41 H2'        -0.0017    0.0018    0.0005 H         1 ACP         0.0785
     42 HO2'        2.0953   -0.9375    0.0709 H         1 ACP         0.4275
     43 H1'        -0.1998   -1.6319    2.6178 H         1 ACP         0.1009
     44 H8         -0.9745   -3.6312    1.2318 H         1 ACP         0.1067
     45 HN61       -5.2619   -3.7766   -0.9586 H         1 ACP         0.4213
     46 HN62       -6.4834   -2.5990   -1.3590 H         1 ACP         0.4213
     47 H2         -4.8317    1.4071    0.1930 H         1 ACP         0.0365
@<TRIPOS>BOND
     1    1    2 2
     2    1    3 1
     3    1    4 1
     4    1    8 1
     5    3   32 1
     6    4   33 1
     7    5    6 2
     8    5    7 1
     9    5    8 1
    10    5   12 1
    11    8   34 1
    12    8   35 1
    13    9   10 2
    14    9   11 1
    15    9   12 1
    16    9   13 1
    17   13   14 1
    18   14   15 1
    19   14   36 1
    20   14   37 1
    21   15   16 1
    22   15   17 1
    23   15   38 1
    24   16   21 1
    25   17   18 1
    26   17   19 1
    27   17   39 1
    28   18   40 1
    29   19   20 1
    30   19   21 1
    31   19   41 1
    32   20   42 1
    33   21   22 1
    34   21   43 1
    35   22   23 ar
    36   22   31 ar
    37   23   24 ar
    38   23   44 1
    39   24   25 ar
    40   25   26 ar
    41   25   31 ar
    42   26   27 1
    43   26   28 ar
    44   27   45 1
    45   27   46 1
    46   28   29 ar
    47   29   30 ar
    48   29   47 1
    49   30   31 ar
@<TRIPOS>SUBSTRUCTURE
     1 ACP         1 GROUP 0 A     ****
@<TRIPOS>MOLECULE
[[5-(6-aminopurin-9-yl)-3,4-dihydroxy-tetrahydrofuran-2-yl]methoxy-oxido-phosphoryl]oxy-(phosphonomethyl)phosphinate
   47    49     1     0     0
SMALL
USER_CHARGES

@<TRIPOS>ATOM
      1 PG          2.9168    5.0040    2.3772 P.3       1 ACP         1.6478
      2 O1G         2.3071    4.6806    1.0464 O.2       1 ACP        -0.9103
      3 O2G         4.2711    5.8833    2.3248 O.3       1 ACP        -0.7989
      4 O3G         3.3272    3.7284    3.2795 O.3       1 ACP        -0.7989
      5 PB          0.1959    5.3518    4.0522 P.3       1 ACP         1.4947
      6 O1B        -0.3873    6.4213    4.9464 O.co2     1 ACP        -0.8554
      7 O2B         0.3768    3.9242    4.5137 O.co2     1 ACP        -0.8554
      8 C3B         1.8456    5.9581    3.4761 C.3       1 ACP        -0.6550
      9 PA         -2.0037    4.7529    2.1525 P.3       1 ACP         1.5921
     10 O1A        -2.1554    4.9422    0.6587 O.co2     1 ACP        -0.8561
     11 O2A        -3.0660    5.2571    3.1051 O.co2     1 ACP        -0.8561
     12 O3A        -0.5638    5.3737    2.6095 O.3       1 ACP        -0.8166
     13 O5'        -1.7337    3.1724    2.4754 O.3       1 ACP        -0.5737
     14 C5'        -0.8811    2.4285    1.6206 C.3       1 ACP         0.2197
     15 C4'        -0.1994    1.3333    2.4288 C.3       1 ACP         0.0944
     16 O4'        -1.1285    0.2356    2.5840 O.3       1 ACP        -0.4017
     17 C3'         1.0324    0.7610    1.7344 C.3       1 ACP         0.0859
     18 O3'         1.9175    0.2377    2.7247 O.3       1 ACP        -0.5941
     19 C2'         0.4468   -0.3802    0.9263 C.3       1 ACP         0.0924
     20 O2'         1.3993   -1.3703    0.5961 O.3       1 ACP        -0.5928
     21 C1'        -0.6159   -0.9100    1.8769 C.3       1 ACP         0.3967
     22 N9         -1.7127   -1.6108    1.2130 N.pl3     1 ACP        -0.6763
     23 C8         -2.0877   -2.9101    1.4304 C.ar      1 ACP         0.5586
     24 N7         -3.1152   -3.2613    0.6857 N.2       1 ACP        -0.5795
     25 C5         -3.4186   -2.1409   -0.0462 C.ar      1 ACP        -0.2116
     26 C6         -4.3953   -1.8809   -1.0023 C.ar      1 ACP         0.7185
     27 N6         -5.3118   -2.8767   -1.3812 N.pl3     1 ACP        -0.9442
     28 N1         -4.4538   -0.6507   -1.5667 N.ar      1 ACP        -0.8040
     29 C2         -3.5442    0.2679   -1.1609 C.ar      1 ACP         0.6560
     30 N3         -2.5561    0.1361   -0.2491 N.ar      1 ACP        -0.7058
     31 C4         -2.5568   -1.1019    0.2674 C.ar      1 ACP         0.5729
     32 HOG2        5.0506    5.5272    1.8476 H         1 ACP         0.4440
     33 HOG3        3.9822    3.0886    2.9279 H         1 ACP         0.4440
     34 H3B1        2.4144    6.1739    4.3875 H         1 ACP         0.1084
     35 H3B2        1.6558    6.9184    2.9832 H         1 ACP         0.1084
     36 H5'1       -1.4802    1.9929    0.8148 H         1 ACP         0.0281
     37 H5'2       -0.1370    3.1043    1.1873 H         1 ACP         0.0281
     38 H4'         0.0403    1.7078    3.4343 H         1 ACP         0.1082
     39 H3'         1.5906    1.4859    1.1353 H         1 ACP         0.0650
     40 HO3'        2.1521    0.9800    3.3017 H         1 ACP         0.4300
     41 H2'        -0.0017    0.0018    0.0005 H         1 ACP         0.0785
     42 HO2'        0.9369   -2.0558    0.0825 H         1 ACP         0.4275
     43 H1'        -0.1998   -1.6319    2.6178 H         1 ACP         0.1009
     44 H8         -1.5778   -3.5473    2.1399 H         1 ACP         0.1067
     45 HN61       -5.2294   -3.7965   -0.9914 H         1 ACP         0.4213
     46 HN62       -5.9774   -2.6837   -2.1055 H         1 ACP         0.4213
     47 H2         -3.6201    1.2414   -1.6336 H         1 ACP         0.0365
@<TRIPOS>BOND
     1    1    2 2
     2    1    3 1
     3    1    4 1
     4    1    8 1
     5    3   32 1
     6    4   33 1
     7    5    6 2
     8    5    7 1
     9    5    8 1
    10    5   12 1
    11    8   34 1
    12    8   35 1
    13    9   10 2
    14    9   11 1
    15    9   12 1
    16    9   13 1
    17   13   14 1
    18   14   15 1
    19   14   36 1
    20   14   37 1
    21   15   16 1
    22   15   17 1
    23   15   38 1
    24   16   21 1
    25   17   18 1
    26   17   19 1
    27   17   39 1
    28   18   40 1
    29   19   20 1
    30   19   21 1
    31   19   41 1
    32   20   42 1
    33   21   22 1
    34   21   43 1
    35   22   23 ar
    36   22   31 ar
    37   23   24 ar
    38   23   44 1
    39   24   25 ar
    40   25   26 ar
    41   25   31 ar
    42   26   27 1
    43   26   28 ar
    44   27   45 1
    45   27   46 1
    46   28   29 ar
    47   29   30 ar
    48   29   47 1
    49   30   31 ar
@<TRIPOS>SUBSTRUCTURE
     1 ACP         1 GROUP 0 A     ****
@<TRIPOS>MOLECULE
[[5-(6-aminopurin-9-yl)-3,4-dihydroxy-tetrahydrofuran-2-yl]methoxy-oxido-phosphoryl]oxy-(phosphonomethyl)phosphinate
   47    49     1     0     0
SMALL
USER_CHARGES

@<TRIPOS>ATOM
      1 PG          0.0742    6.9511   -0.2832 P.3       1 ACP         1.6478
      2 O1G         1.4631    7.3414    0.1239 O.2       1 ACP        -0.9103
      3 O2G        -0.1792    5.3645   -0.4532 O.3       1 ACP        -0.7989
      4 O3G        -0.4363    7.5692   -1.6857 O.3       1 ACP        -0.7989
      5 PB         -1.2569    6.8883    2.6416 P.3       1 ACP         1.4947
      6 O1B        -2.4715    7.5171    3.2841 O.co2     1 ACP        -0.8554
      7 O2B         0.1347    7.0610    3.2048 O.co2     1 ACP        -0.8554
      8 C3B        -1.2131    7.4538    0.8811 C.3       1 ACP        -0.6550
      9 PA         -1.9154    4.0917    3.3841 P.3       1 ACP         1.5921
     10 O1A        -3.2739    4.3706    3.9902 O.co2     1 ACP        -0.8561
     11 O2A        -0.7157    3.8308    4.2687 O.co2     1 ACP        -0.8561
     12 O3A        -1.5461    5.3085    2.3591 O.3       1 ACP        -0.8166
     13 O5'        -2.0402    2.8619    2.3132 O.3       1 ACP        -0.5737
     14 C5'        -0.8811    2.4285    1.6206 C.3       1 ACP         0.2197
     15 C4'        -0.1994    1.3333    2.4288 C.3       1 ACP         0.0944
     16 O4'        -1.1285    0.2356    2.5840 O.3       1 ACP        -0.4017
     17 C3'         1.0324    0.7610    1.7344 C.3       1 ACP         0.0859
     18 O3'         1.9175    0.2377    2.7247 O.3       1 ACP        -0.5941
     19 C2'         0.4468   -0.3802    0.9263 C.3       1 ACP         0.0924
     20 O2'         1.3993   -1.3703    0.5961 O.3       1 ACP        -0.5928
     21 C1'        -0.6159   -0.9100    1.8769 C.3       1 ACP         0.3967
     22 N9         -1.7127   -1.6108    1.2130 N.pl3     1 ACP        -0.6763
     23 C8         -1.7712   -2.9546    0.9544 C.ar      1 ACP         0.5586
     24 N7         -2.8883   -3.2948    0.3462 N.2       1 ACP        -0.5795
     25 C5         -3.5834   -2.1202    0.2043 C.ar      1 ACP        -0.2116
     26 C6         -4.8225   -1.8251   -0.3554 C.ar      1 ACP         0.7185
     27 N6         -5.6154   -2.8394   -0.9189 N.pl3     1 ACP        -0.9442
     28 N1         -5.2589   -0.5425   -0.3507 N.ar      1 ACP        -0.8040
     29 C2         -4.4510    0.3913    0.2069 C.ar      1 ACP         0.6560
     30 N3         -3.2368    0.2296    0.7767 N.ar      1 ACP        -0.7058
     31 C4         -2.8684   -1.0596    0.7376 C.ar      1 ACP         0.5729
     32 HOG2        0.3515    4.8665   -1.1108 H         1 ACP         0.4440
     33 HOG3        0.0606    7.3616   -2.5054 H         1 ACP         0.4440
     34 H3B1       -1.2115    8.5488    0.9238 H         1 ACP         0.1084
     35 H3B2       -2.1730    7.1525    0.4463 H         1 ACP         0.1084
     36 H5'1       -1.1771    2.0504    0.6370 H         1 ACP         0.0281
     37 H5'2       -0.2083    3.2816    1.4878 H         1 ACP         0.0281
     38 H4'         0.0403    1.7078    3.4343 H         1 ACP         0.1082
     39 H3'         1.5906    1.4859    1.1353 H         1 ACP         0.0650
     40 HO3'        2.6839   -0.1150    2.2479 H         1 ACP         0.4300
     41 H2'        -0.0017    0.0018    0.0005 H         1 ACP         0.0785
     42 HO2'        2.0953   -0.9375    0.0709 H         1 ACP         0.4275
     43 H1'        -0.1998   -1.6319    2.6178 H         1 ACP         0.1009
     44 H8         -0.9745   -3.6312    1.2318 H         1 ACP         0.1067
     45 HN61       -5.2619   -3.7766   -0.9586 H         1 ACP         0.4213
     46 HN62       -6.4834   -2.5990   -1.3590 H         1 ACP         0.4213
     47 H2         -4.8317    1.4071    0.1930 H         1 ACP         0.0365
@<TRIPOS>BOND
     1    1    2 2
     2    1    3 1
     3    1    4 1
     4    1    8 1
     5    3   32 1
     6    4   33 1
     7    5    6 2
     8    5    7 1
     9    5    8 1
    10    5   12 1
    11    8   34 1
    12    8   35 1
    13    9   10 2
    14    9   11 1
    15    9   12 1
    16    9   13 1
    17   13   14 1
    18   14   15 1
    19   14   36 1
    20   14   37 1
    21   15   16 1
    22   15   17 1
    23   15   38 1
    24   16   21 1
    25   17   18 1
    26   17   19 1
    27   17   39 1
    28   18   40 1
    29   19   20 1
    30   19   21 1
    31   19   41 1
    32   20   42 1
    33   21   22 1
    34   21   43 1
    35   22   23 ar
    36   22   31 ar
    37   23   24 ar
    38   23   44 1
    39   24   25 ar
    40   25   26 ar
    41   25   31 ar
    42   26   27 1
    43   26   28 ar
    44   27   45 1
    45   27   46 1
    46   28   29 ar
    47   29   30 ar
    48   29   47 1
    49   30   31 ar
@<TRIPOS>SUBSTRUCTURE
     1 ACP         1 GROUP 0 A     ****
@<TRIPOS>MOLECULE
[[5-(6-aminopurin-9-yl)-3,4-dihydroxy-tetrahydrofuran-2-yl]methoxy-oxido-phosphoryl]oxy-(phosphonomethyl)phosphinate
   47    49     1     0     0
SMALL
USER_CHARGES

@<TRIPOS>ATOM
      1 PG          6.1612   -2.6856    1.7688 P.3       1 ACP         1.6478
      2 O1G         4.8105   -2.1137    1.4589 O.2       1 ACP        -0.9103
      3 O2G         6.6672   -3.8506    0.7703 O.3       1 ACP        -0.7989
      4 O3G         6.3131   -3.3491    3.2339 O.3       1 ACP        -0.7989
      5 PB          7.9438   -0.5175    0.2031 P.3       1 ACP         1.4947
      6 O1B         8.3094   -1.5136   -0.8729 O.co2     1 ACP        -0.8554
      7 O2B         8.8786    0.5913    0.6278 O.co2     1 ACP        -0.8554
      8 C3B         7.5092   -1.4832    1.7195 C.3       1 ACP        -0.6550
      9 PA          5.8978    0.9307   -1.3850 P.3       1 ACP         1.5921
     10 O1A         5.9190    0.0229   -2.5958 O.co2     1 ACP        -0.8561
     11 O2A         6.5864    2.2777   -1.4195 O.co2     1 ACP        -0.8561
     12 O3A         6.4633    0.0945   -0.1011 O.3       1 ACP        -0.8166
     13 O5'         4.3514    1.1573   -0.9028 O.3       1 ACP        -0.5737
     14 C5'         4.0922    1.9801    0.2227 C.3       1 ACP         0.2197
     15 C4'         2.5944    2.0310    0.4653 C.3       1 ACP         0.0944
     16 O4'         1.9327    2.5740   -0.6889 O.3       1 ACP        -0.4017
     17 C3'         1.9685    0.6634    0.6767 C.3       1 ACP         0.0859
     18 O3'         2.1425    0.1975    1.9977 O.3       1 ACP        -0.5941
     19 C2'         0.5176    0.9128    0.3099 C.3       1 ACP         0.0924
     20 O2'        -0.2103    1.4454    1.4152 O.3       1 ACP        -0.5928
     21 C1'         0.6219    1.9765   -0.7844 C.3       1 ACP         0.3967
     22 N9          0.4237    1.4496   -2.1357 N.pl3     1 ACP        -0.6763
     23 C8          1.4026    0.9717   -2.9660 C.ar      1 ACP         0.5586
     24 N7          0.9183    0.5619   -4.1197 N.2       1 ACP        -0.5795
     25 C5         -0.4330    0.7845   -4.0331 C.ar      1 ACP        -0.2116
     26 C6         -1.4794    0.5615   -4.9225 C.ar      1 ACP         0.7185
     27 N6         -1.2378    0.0044   -6.1899 N.pl3     1 ACP        -0.9442
     28 N1         -2.7406    0.8885   -4.5512 N.ar      1 ACP        -0.8040
     29 C2         -2.9113    1.4216   -3.3172 C.ar      1 ACP         0.6560
     30 N3         -1.9824    1.6843   -2.3721 N.ar      1 ACP        -0.7058
     31 C4         -0.7613    1.3370   -2.8054 C.ar      1 ACP         0.5729
     32 HOG2        6.1352   -4.6706    0.6887 H         1 ACP         0.4440
     33 HOG3        5.7343   -4.1028    3.4765 H         1 ACP         0.4440
     34 H3B1        7.3156   -0.7368    2.4982 H         1 ACP         0.1084
     35 H3B2        8.4231   -2.0154    2.0074 H         1 ACP         0.1084
     36 H5'1        4.6070    1.5616    1.0933 H         1 ACP         0.0281
     37 H5'2        4.4825    2.9835    0.0251 H         1 ACP         0.0281
     38 H4'         2.3751    2.7029    1.3156 H         1 ACP         0.1082
     39 H3'         2.4336   -0.1217   -0.0015 H         1 ACP         0.0650
     40 HO3'        1.7160   -0.6716    2.0397 H         1 ACP         0.4300
     41 H2'         0.0316    0.0155   -0.0339 H         1 ACP         0.0785
     42 HO2'       -0.1608    0.7921    2.1351 H         1 ACP         0.4275
     43 H1'        -0.1474    2.7798   -0.6651 H         1 ACP         0.1009
     44 H8          2.4442    0.9470   -2.6763 H         1 ACP         0.1067
     45 HN61       -0.2955   -0.1901   -6.4713 H         1 ACP         0.4213
     46 HN62       -1.9987   -0.1045   -6.8334 H         1 ACP         0.4213
     47 H2         -3.9335    1.6716   -3.0534 H         1 ACP         0.0365
@<TRIPOS>BOND
     1    1    2 2
     2    1    3 1
     3    1    4 1
     4    1    8 1
     5    3   32 1
     6    4   33 1
     7    5    6 2
     8    5    7 1
     9    5    8 1
    10    5   12 1
    11    8   34 1
    12    8   35 1
    13    9   10 2
    14    9   11 1
    15    9   12 1
    16    9   13 1
    17   13   14 1
    18   14   15 1
    19   14   36 1
    20   14   37 1
    21   15   16 1
    22   15   17 1
    23   15   38 1
    24   16   21 1
    25   17   18 1
    26   17   19 1
    27   17   39 1
    28   18   40 1
    29   19   20 1
    30   19   21 1
    31   19   41 1
    32   20   42 1
    33   21   22 1
    34   21   43 1
    35   22   23 ar
    36   22   31 ar
    37   23   24 ar
    38   23   44 1
    39   24   25 ar
    40   25   26 ar
    41   25   31 ar
    42   26   27 1
    43   26   28 ar
    44   27   45 1
    45   27   46 1
    46   28   29 ar
    47   29   30 ar
    48   29   47 1
    49   30   31 ar
@<TRIPOS>SUBSTRUCTURE
     1 ACP         1 GROUP 0 A     ****
@<TRIPOS>MOLECULE
[[5-(6-aminopurin-9-yl)-3,4-dihydroxy-tetrahydrofuran-2-yl]methoxy-oxido-phosphoryl]oxy-(phosphonomethyl)phosphinate
   47    49     1     0     0
SMALL
USER_CHARGES

@<TRIPOS>ATOM
      1 PG         -1.2647    8.7897    2.0310 P.3       1 ACP         1.6478
      2 O1G        -2.5839    9.4444    2.3114 O.2       1 ACP        -0.9103
      3 O2G        -0.5402    8.1139    3.3072 O.3       1 ACP        -0.7989
      4 O3G        -0.1268    9.7585    1.4177 O.3       1 ACP        -0.7989
      5 PB         -2.3703    5.9214    1.0926 P.3       1 ACP         1.4947
      6 O1B        -2.1722    5.0352   -0.1153 O.co2     1 ACP        -0.8554
      7 O2B        -3.7388    6.3763    1.5443 O.co2     1 ACP        -0.8554
      8 C3B        -1.3427    7.4375    0.8348 C.3       1 ACP        -0.6550
      9 PA         -1.9154    4.0917    3.3841 P.3       1 ACP         1.5921
     10 O1A        -3.2739    4.3706    3.9902 O.co2     1 ACP        -0.8561
     11 O2A        -0.7157    3.8308    4.2687 O.co2     1 ACP        -0.8561
     12 O3A        -1.5461    5.3085    2.3591 O.3       1 ACP        -0.8166
     13 O5'        -2.0402    2.8619    2.3132 O.3       1 ACP        -0.5737
     14 C5'        -0.8811    2.4285    1.6206 C.3       1 ACP         0.2197
     15 C4'        -0.1994    1.3333    2.4288 C.3       1 ACP         0.0944
     16 O4'        -1.1285    0.2356    2.5840 O.3       1 ACP        -0.4017
     17 C3'         1.0324    0.7610    1.7344 C.3       1 ACP         0.0859
     18 O3'         1.9175    0.2377    2.7247 O.3       1 ACP        -0.5941
     19 C2'         0.4468   -0.3802    0.9263 C.3       1 ACP         0.0924
     20 O2'         1.3993   -1.3703    0.5961 O.3       1 ACP        -0.5928
     21 C1'        -0.6159   -0.9100    1.8769 C.3       1 ACP         0.3967
     22 N9         -1.7127   -1.6108    1.2130 N.pl3     1 ACP        -0.6763
     23 C8         -2.8641   -1.0399    0.7392 C.ar      1 ACP         0.5586
     24 N7         -3.6659   -1.9257    0.1858 N.2       1 ACP        -0.5795
     25 C5         -3.0053   -3.1223    0.3069 C.ar      1 ACP        -0.2116
     26 C6         -3.3321   -4.4178   -0.0813 C.ar      1 ACP         0.7185
     27 N6         -4.5476   -4.6866   -0.7335 N.pl3     1 ACP        -0.9442
     28 N1         -2.4608   -5.4225    0.1773 N.ar      1 ACP        -0.8040
     29 C2         -1.3053   -5.1020    0.8081 C.ar      1 ACP         0.6560
     30 N3         -0.8788   -3.8921    1.2315 N.ar      1 ACP        -0.7058
     31 C4         -1.7870   -2.9477    0.9438 C.ar      1 ACP         0.5729
     32 HOG2       -0.3055    8.6784    4.0743 H         1 ACP         0.4440
     33 HOG3        0.1621   10.5395    1.9359 H         1 ACP         0.4440
     34 H3B1       -1.6752    7.8594   -0.1204 H         1 ACP         0.1084
     35 H3B2       -0.3167    7.0818    0.6869 H         1 ACP         0.1084
     36 H5'1       -1.1771    2.0504    0.6370 H         1 ACP         0.0281
     37 H5'2       -0.2083    3.2816    1.4878 H         1 ACP         0.0281
     38 H4'         0.0403    1.7078    3.4343 H         1 ACP         0.1082
     39 H3'         1.5906    1.4859    1.1353 H         1 ACP         0.0650
     40 HO3'        2.6839   -0.1150    2.2479 H         1 ACP         0.4300
     41 H2'        -0.0017    0.0018    0.0005 H         1 ACP         0.0785
     42 HO2'        2.0953   -0.9375    0.0709 H         1 ACP         0.4275
     43 H1'        -0.1998   -1.6319    2.6178 H         1 ACP         0.1009
     44 H8         -3.0609    0.0200    0.8250 H         1 ACP         0.1067
     45 HN61       -5.2046   -3.9433   -0.8775 H         1 ACP         0.4213
     46 HN62       -4.7849   -5.6332   -0.9625 H         1 ACP         0.4213
     47 H2         -0.6318   -5.9307    0.9993 H         1 ACP         0.0365
@<TRIPOS>BOND
     1    1    2 2
     2    1    3 1
     3    1    4 1
     4    1    8 1
     5    3   32 1
     6    4   33 1
     7    5    6 2
     8    5    7 1
     9    5    8 1
    10    5   12 1
    11    8   34 1
    12    8   35 1
    13    9   10 2
    14    9   11 1
    15    9   12 1
    16    9   13 1
    17   13   14 1
    18   14   15 1
    19   14   36 1
    20   14   37 1
    21   15   16 1
    22   15   17 1
    23   15   38 1
    24   16   21 1
    25   17   18 1
    26   17   19 1
    27   17   39 1
    28   18   40 1
    29   19   20 1
    30   19   21 1
    31   19   41 1
    32   20   42 1
    33   21   22 1
    34   21   43 1
    35   22   23 ar
    36   22   31 ar
    37   23   24 ar
    38   23   44 1
    39   24   25 ar
    40   25   26 ar
    41   25   31 ar
    42   26   27 1
    43   26   28 ar
    44   27   45 1
    45   27   46 1
    46   28   29 ar
    47   29   30 ar
    48   29   47 1
    49   30   31 ar
@<TRIPOS>SUBSTRUCTURE
     1 ACP         1 GROUP 0 A     ****
@<TRIPOS>MOLECULE
[[5-(6-aminopurin-9-yl)-3,4-dihydroxy-tetrahydrofuran-2-yl]methoxy-oxido-phosphoryl]oxy-(phosphonomethyl)phosphinate
   47    49     1     0     0
SMALL
USER_CHARGES

@<TRIPOS>ATOM
      1 PG         -4.7002    5.1675    1.8849 P.3       1 ACP         1.6478
      2 O1G        -4.0144    3.9645    1.3104 O.2       1 ACP        -0.9103
      3 O2G        -5.1911    5.0207    3.4171 O.3       1 ACP        -0.7989
      4 O3G        -6.0313    5.6450    1.1040 O.3       1 ACP        -0.7989
      5 PB         -2.0832    6.7718    2.8375 P.3       1 ACP         1.4947
      6 O1B        -2.3858    6.5102    4.2948 O.co2     1 ACP        -0.8554
      7 O2B        -1.3813    8.0263    2.3715 O.co2     1 ACP        -0.8554
      8 C3B        -3.6835    6.6611    1.9168 C.3       1 ACP        -0.6550
      9 PA          0.0332    4.7082    2.5761 P.3       1 ACP         1.5921
     10 O1A        -0.1148    4.1078    3.9574 O.co2     1 ACP        -0.8561
     11 O2A         1.1835    5.6391    2.2595 O.co2     1 ACP        -0.8561
     12 O3A        -1.3627    5.4617    2.1868 O.3       1 ACP        -0.8166
     13 O5'         0.0182    3.5132    1.4596 O.3       1 ACP        -0.5737
     14 C5'        -0.8811    2.4285    1.6206 C.3       1 ACP         0.2197
     15 C4'        -0.1994    1.3333    2.4288 C.3       1 ACP         0.0944
     16 O4'        -1.1285    0.2356    2.5840 O.3       1 ACP        -0.4017
     17 C3'         1.0324    0.7610    1.7344 C.3       1 ACP         0.0859
     18 O3'         1.9175    0.2377    2.7247 O.3       1 ACP        -0.5941
     19 C2'         0.4468   -0.3802    0.9263 C.3       1 ACP         0.0924
     20 O2'         1.3993   -1.3703    0.5961 O.3       1 ACP        -0.5928
     21 C1'        -0.6159   -0.9100    1.8769 C.3       1 ACP         0.3967
     22 N9         -1.7127   -1.6108    1.2130 N.pl3     1 ACP        -0.6763
     23 C8         -1.7712   -2.9546    0.9544 C.ar      1 ACP         0.5586
     24 N7         -2.8883   -3.2948    0.3462 N.2       1 ACP        -0.5795
     25 C5         -3.5834   -2.1202    0.2043 C.ar      1 ACP        -0.2116
     26 C6         -4.8225   -1.8251   -0.3554 C.ar      1 ACP         0.7185
     27 N6         -5.6154   -2.8394   -0.9189 N.pl3     1 ACP        -0.9442
     28 N1         -5.2589   -0.5425   -0.3507 N.ar      1 ACP        -0.8040
     29 C2         -4.4510    0.3913    0.2069 C.ar      1 ACP         0.6560
     30 N3         -3.2368    0.2296    0.7767 N.ar      1 ACP        -0.7058
     31 C4         -2.8684   -1.0596    0.7376 C.ar      1 ACP         0.5729
     32 HOG2       -5.8350    4.3166    3.6443 H         1 ACP         0.4440
     33 HOG3       -6.7857    5.0230    1.0266 H         1 ACP         0.4440
     34 H3B1       -3.4446    6.9211    0.8793 H         1 ACP         0.1084
     35 H3B2       -4.3121    7.4674    2.3115 H         1 ACP         0.1084
     36 H5'1       -1.7769    2.7852    2.1386 H         1 ACP         0.0281
     37 H5'2       -1.1652    2.0544    0.6320 H         1 ACP         0.0281
     38 H4'         0.0403    1.7078    3.4343 H         1 ACP         0.1082
     39 H3'         1.5906    1.4859    1.1353 H         1 ACP         0.0650
     40 HO3'        2.6839   -0.1150    2.2479 H         1 ACP         0.4300
     41 H2'        -0.0017    0.0018    0.0005 H         1 ACP         0.0785
     42 HO2'        0.9369   -2.0558    0.0825 H         1 ACP         0.4275
     43 H1'        -0.1998   -1.6319    2.6178 H         1 ACP         0.1009
     44 H8         -0.9745   -3.6312    1.2318 H         1 ACP         0.1067
     45 HN61       -5.2619   -3.7766   -0.9586 H         1 ACP         0.4213
     46 HN62       -6.4834   -2.5990   -1.3590 H         1 ACP         0.4213
     47 H2         -4.8317    1.4071    0.1930 H         1 ACP         0.0365
@<TRIPOS>BOND
     1    1    2 2
     2    1    3 1
     3    1    4 1
     4    1    8 1
     5    3   32 1
     6    4   33 1
     7    5    6 2
     8    5    7 1
     9    5    8 1
    10    5   12 1
    11    8   34 1
    12    8   35 1
    13    9   10 2
    14    9   11 1
    15    9   12 1
    16    9   13 1
    17   13   14 1
    18   14   15 1
    19   14   36 1
    20   14   37 1
    21   15   16 1
    22   15   17 1
    23   15   38 1
    24   16   21 1
    25   17   18 1
    26   17   19 1
    27   17   39 1
    28   18   40 1
    29   19   20 1
    30   19   21 1
    31   19   41 1
    32   20   42 1
    33   21   22 1
    34   21   43 1
    35   22   23 ar
    36   22   31 ar
    37   23   24 ar
    38   23   44 1
    39   24   25 ar
    40   25   26 ar
    41   25   31 ar
    42   26   27 1
    43   26   28 ar
    44   27   45 1
    45   27   46 1
    46   28   29 ar
    47   29   30 ar
    48   29   47 1
    49   30   31 ar
@<TRIPOS>SUBSTRUCTURE
     1 ACP         1 GROUP 0 A     ****
@<TRIPOS>MOLECULE
[[5-(6-aminopurin-9-yl)-3,4-dihydroxy-tetrahydrofuran-2-yl]methoxy-oxido-phosphoryl]oxy-(phosphonomethyl)phosphinate
   47    49     1     0     0
SMALL
USER_CHARGES

@<TRIPOS>ATOM
      1 PG          6.6125    5.7555   -0.3498 P.3       1 ACP         1.6478
      2 O1G         6.8803    4.6190   -1.2899 O.2       1 ACP        -0.9103
      3 O2G         5.0599    6.1730   -0.1901 O.3       1 ACP        -0.7989
      4 O3G         7.3436    7.1477   -0.7197 O.3       1 ACP        -0.7989
      5 PB          6.4777    4.0657    2.3808 P.3       1 ACP         1.4947
      6 O1B         4.9837    4.2625    2.4936 O.co2     1 ACP        -0.8554
      7 O2B         7.3692    3.9405    3.5945 O.co2     1 ACP        -0.8554
      8 C3B         7.1377    5.4544    1.3529 C.3       1 ACP        -0.6550
      9 PA          6.3565    1.2769    1.3737 P.3       1 ACP         1.5921
     10 O1A         6.7988    0.6870    2.6954 O.co2     1 ACP        -0.8561
     11 O2A         6.7715    0.6371    0.0667 O.co2     1 ACP        -0.8561
     12 O3A         6.7901    2.8512    1.3385 O.3       1 ACP        -0.8166
     13 O5'         4.7294    1.4425    1.3700 O.3       1 ACP        -0.5737
     14 C5'         4.0922    1.9801    0.2227 C.3       1 ACP         0.2197
     15 C4'         2.5944    2.0310    0.4653 C.3       1 ACP         0.0944
     16 O4'         1.9327    2.5740   -0.6889 O.3       1 ACP        -0.4017
     17 C3'         1.9685    0.6634    0.6767 C.3       1 ACP         0.0859
     18 O3'         2.1425    0.1975    1.9977 O.3       1 ACP        -0.5941
     19 C2'         0.5176    0.9128    0.3099 C.3       1 ACP         0.0924
     20 O2'        -0.2103    1.4454    1.4152 O.3       1 ACP        -0.5928
     21 C1'         0.6219    1.9765   -0.7844 C.3       1 ACP         0.3967
     22 N9          0.4237    1.4496   -2.1357 N.pl3     1 ACP        -0.6763
     23 C8          1.4026    0.9717   -2.9660 C.ar      1 ACP         0.5586
     24 N7          0.9183    0.5619   -4.1197 N.2       1 ACP        -0.5795
     25 C5         -0.4330    0.7845   -4.0331 C.ar      1 ACP        -0.2116
     26 C6         -1.4794    0.5615   -4.9225 C.ar      1 ACP         0.7185
     27 N6         -1.2378    0.0044   -6.1899 N.pl3     1 ACP        -0.9442
     28 N1         -2.7406    0.8885   -4.5512 N.ar      1 ACP        -0.8040
     29 C2         -2.9113    1.4216   -3.3172 C.ar      1 ACP         0.6560
     30 N3         -1.9824    1.6843   -2.3721 N.ar      1 ACP        -0.7058
     31 C4         -0.7613    1.3370   -2.8054 C.ar      1 ACP         0.5729
     32 HOG2        4.5639    6.4697   -0.9826 H         1 ACP         0.4440
     33 HOG3        7.1484    7.5725   -1.5819 H         1 ACP         0.4440
     34 H3B1        8.2257    5.3236    1.3454 H         1 ACP         0.1084
     35 H3B2        6.9300    6.3700    1.9183 H         1 ACP         0.1084
     36 H5'1        4.4845    2.9853    0.0383 H         1 ACP         0.0281
     37 H5'2        4.3193    1.3444   -0.6389 H         1 ACP         0.0281
     38 H4'         2.3751    2.7029    1.3156 H         1 ACP         0.1082
     39 H3'         2.4336   -0.1217   -0.0015 H         1 ACP         0.0650
     40 HO3'        3.0987    0.1465    2.1461 H         1 ACP         0.4300
     41 H2'         0.0316    0.0155   -0.0339 H         1 ACP         0.0785
     42 HO2'       -0.1608    0.7921    2.1351 H         1 ACP         0.4275
     43 H1'        -0.1474    2.7798   -0.6651 H         1 ACP         0.1009
     44 H8          2.4442    0.9470   -2.6763 H         1 ACP         0.1067
     45 HN61       -0.2955   -0.1901   -6.4713 H         1 ACP         0.4213
     46 HN62       -1.9987   -0.1045   -6.8334 H         1 ACP         0.4213
     47 H2         -3.9335    1.6716   -3.0534 H         1 ACP         0.0365
@<TRIPOS>BOND
     1    1    2 2
     2    1    3 1
     3    1    4 1
     4    1    8 1
     5    3   32 1
     6    4   33 1
     7    5    6 2
     8    5    7 1
     9    5    8 1
    10    5   12 1
    11    8   34 1
    12    8   35 1
    13    9   10 2
    14    9   11 1
    15    9   12 1
    16    9   13 1
    17   13   14 1
    18   14   15 1
    19   14   36 1
    20   14   37 1
    21   15   16 1
    22   15   17 1
    23   15   38 1
    24   16   21 1
    25   17   18 1
    26   17   19 1
    27   17   39 1
    28   18   40 1
    29   19   20 1
    30   19   21 1
    31   19   41 1
    32   20   42 1
    33   21   22 1
    34   21   43 1
    35   22   23 ar
    36   22   31 ar
    37   23   24 ar
    38   23   44 1
    39   24   25 ar
    40   25   26 ar
    41   25   31 ar
    42   26   27 1
    43   26   28 ar
    44   27   45 1
    45   27   46 1
    46   28   29 ar
    47   29   30 ar
    48   29   47 1
    49   30   31 ar
@<TRIPOS>SUBSTRUCTURE
     1 ACP         1 GROUP 0 A     ****
@<TRIPOS>MOLECULE
[[5-(6-aminopurin-9-yl)-3,4-dihydroxy-tetrahydrofuran-2-yl]methoxy-oxido-phosphoryl]oxy-(phosphonomethyl)phosphinate
   47    49     1     0     0
SMALL
USER_CHARGES

@<TRIPOS>ATOM
      1 PG         -4.8262    5.9712    1.9636 P.3       1 ACP         1.6478
      2 O1G        -5.4107    5.0947    0.8971 O.2       1 ACP        -0.9103
      3 O2G        -4.2829    5.2000    3.2752 O.3       1 ACP        -0.7989
      4 O3G        -5.8250    7.0884    2.5668 O.3       1 ACP        -0.7989
      5 PB         -1.8375    6.1739    0.7989 P.3       1 ACP         1.4947
      6 O1B        -0.8896    7.3009    0.4597 O.co2     1 ACP        -0.8554
      7 O2B        -2.2309    5.1191   -0.2091 O.co2     1 ACP        -0.8554
      8 C3B        -3.3971    6.9409    1.4315 C.3       1 ACP        -0.6550
      9 PA          0.0332    4.7082    2.5761 P.3       1 ACP         1.5921
     10 O1A        -0.1148    4.1078    3.9574 O.co2     1 ACP        -0.8561
     11 O2A         1.1835    5.6391    2.2595 O.co2     1 ACP        -0.8561
     12 O3A        -1.3627    5.4617    2.1868 O.3       1 ACP        -0.8166
     13 O5'         0.0182    3.5132    1.4596 O.3       1 ACP        -0.5737
     14 C5'        -0.8811    2.4285    1.6206 C.3       1 ACP         0.2197
     15 C4'        -0.1994    1.3333    2.4288 C.3       1 ACP         0.0944
     16 O4'        -1.1285    0.2356    2.5840 O.3       1 ACP        -0.4017
     17 C3'         1.0324    0.7610    1.7344 C.3       1 ACP         0.0859
     18 O3'         1.9175    0.2377    2.7247 O.3       1 ACP        -0.5941
     19 C2'         0.4468   -0.3802    0.9263 C.3       1 ACP         0.0924
     20 O2'         1.3993   -1.3703    0.5961 O.3       1 ACP        -0.5928
     21 C1'        -0.6159   -0.9100    1.8769 C.3       1 ACP         0.3967
     22 N9         -1.7127   -1.6108    1.2130 N.pl3     1 ACP        -0.6763
     23 C8         -1.7712   -2.9546    0.9544 C.ar      1 ACP         0.5586
     24 N7         -2.8883   -3.2948    0.3462 N.2       1 ACP        -0.5795
     25 C5         -3.5834   -2.1202    0.2043 C.ar      1 ACP        -0.2116
     26 C6         -4.8225   -1.8251   -0.3554 C.ar      1 ACP         0.7185
     27 N6         -5.6154   -2.8394   -0.9189 N.pl3     1 ACP        -0.9442
     28 N1         -5.2589   -0.5425   -0.3507 N.ar      1 ACP        -0.8040
     29 C2         -4.4510    0.3913    0.2069 C.ar      1 ACP         0.6560
     30 N3         -3.2368    0.2296    0.7767 N.ar      1 ACP        -0.7058
     31 C4         -2.8684   -1.0596    0.7376 C.ar      1 ACP         0.5729
     32 HOG2       -4.9099    4.6617    3.8035 H         1 ACP         0.4440
     33 HOG3       -6.6551    6.7986    3.0016 H         1 ACP         0.4440
     34 H3B1       -3.7338    7.6191    0.6393 H         1 ACP         0.1084
     35 H3B2       -3.0999    7.5653    2.2817 H         1 ACP         0.1084
     36 H5'1       -1.7769    2.7852    2.1386 H         1 ACP         0.0281
     37 H5'2       -1.1652    2.0544    0.6320 H         1 ACP         0.0281
     38 H4'         0.0403    1.7078    3.4343 H         1 ACP         0.1082
     39 H3'         1.5906    1.4859    1.1353 H         1 ACP         0.0650
     40 HO3'        2.6839   -0.1150    2.2479 H         1 ACP         0.4300
     41 H2'        -0.0017    0.0018    0.0005 H         1 ACP         0.0785
     42 HO2'        0.9369   -2.0558    0.0825 H         1 ACP         0.4275
     43 H1'        -0.1998   -1.6319    2.6178 H         1 ACP         0.1009
     44 H8         -0.9745   -3.6312    1.2318 H         1 ACP         0.1067
     45 HN61       -5.2619   -3.7766   -0.9586 H         1 ACP         0.4213
     46 HN62       -6.4834   -2.5990   -1.3590 H         1 ACP         0.4213
     47 H2         -4.8317    1.4071    0.1930 H         1 ACP         0.0365
@<TRIPOS>BOND
     1    1    2 2
     2    1    3 1
     3    1    4 1
     4    1    8 1
     5    3   32 1
     6    4   33 1
     7    5    6 2
     8    5    7 1
     9    5    8 1
    10    5   12 1
    11    8   34 1
    12    8   35 1
    13    9   10 2
    14    9   11 1
    15    9   12 1
    16    9   13 1
    17   13   14 1
    18   14   15 1
    19   14   36 1
    20   14   37 1
    21   15   16 1
    22   15   17 1
    23   15   38 1
    24   16   21 1
    25   17   18 1
    26   17   19 1
    27   17   39 1
    28   18   40 1
    29   19   20 1
    30   19   21 1
    31   19   41 1
    32   20   42 1
    33   21   22 1
    34   21   43 1
    35   22   23 ar
    36   22   31 ar
    37   23   24 ar
    38   23   44 1
    39   24   25 ar
    40   25   26 ar
    41   25   31 ar
    42   26   27 1
    43   26   28 ar
    44   27   45 1
    45   27   46 1
    46   28   29 ar
    47   29   30 ar
    48   29   47 1
    49   30   31 ar
@<TRIPOS>SUBSTRUCTURE
     1 ACP         1 GROUP 0 A     ****
@<TRIPOS>MOLECULE
[[5-(6-aminopurin-9-yl)-3,4-dihydroxy-tetrahydrofuran-2-yl]methoxy-oxido-phosphoryl]oxy-(phosphonomethyl)phosphinate
   47    49     1     0     0
SMALL
USER_CHARGES

@<TRIPOS>ATOM
      1 PG          5.8105   -3.1588   -0.9948 P.3       1 ACP         1.6478
      2 O1G         5.2528   -3.9003   -2.1723 O.2       1 ACP        -0.9103
      3 O2G         6.6225   -4.0605    0.0720 O.3       1 ACP        -0.7989
      4 O3G         4.7232   -2.3831   -0.0862 O.3       1 ACP        -0.7989
      5 PB          7.8244   -0.7978   -0.1582 P.3       1 ACP         1.4947
      6 O1B         8.7284    0.1584   -0.9012 O.co2     1 ACP        -0.8554
      7 O2B         8.3368   -1.7120    0.9305 O.co2     1 ACP        -0.8554
      8 C3B         6.9913   -1.8596   -1.4229 C.3       1 ACP        -0.6550
      9 PA          6.3565    1.2769    1.3737 P.3       1 ACP         1.5921
     10 O1A         6.9863    2.4835    0.7118 O.co2     1 ACP        -0.8561
     11 O2A         6.7864    0.8458    2.7591 O.co2     1 ACP        -0.8561
     12 O3A         6.5021   -0.0008    0.3670 O.3       1 ACP        -0.8166
     13 O5'         4.7294    1.4425    1.3700 O.3       1 ACP        -0.5737
     14 C5'         4.0922    1.9801    0.2227 C.3       1 ACP         0.2197
     15 C4'         2.5944    2.0310    0.4653 C.3       1 ACP         0.0944
     16 O4'         1.9327    2.5740   -0.6889 O.3       1 ACP        -0.4017
     17 C3'         1.9685    0.6634    0.6767 C.3       1 ACP         0.0859
     18 O3'         2.1425    0.1975    1.9977 O.3       1 ACP        -0.5941
     19 C2'         0.5176    0.9128    0.3099 C.3       1 ACP         0.0924
     20 O2'        -0.2103    1.4454    1.4152 O.3       1 ACP        -0.5928
     21 C1'         0.6219    1.9765   -0.7844 C.3       1 ACP         0.3967
     22 N9          0.4237    1.4496   -2.1357 N.pl3     1 ACP        -0.6763
     23 C8          1.4026    0.9717   -2.9660 C.ar      1 ACP         0.5586
     24 N7          0.9183    0.5619   -4.1197 N.2       1 ACP        -0.5795
     25 C5         -0.4330    0.7845   -4.0331 C.ar      1 ACP        -0.2116
     26 C6         -1.4794    0.5615   -4.9225 C.ar      1 ACP         0.7185
     27 N6         -1.2378    0.0044   -6.1899 N.pl3     1 ACP        -0.9442
     28 N1         -2.7406    0.8885   -4.5512 N.ar      1 ACP        -0.8040
     29 C2         -2.9113    1.4216   -3.3172 C.ar      1 ACP         0.6560
     30 N3         -1.9824    1.6843   -2.3721 N.ar      1 ACP        -0.7058
     31 C4         -0.7613    1.3370   -2.8054 C.ar      1 ACP         0.5729
     32 HOG2        6.1575   -4.7972    0.5226 H         1 ACP         0.4440
     33 HOG3        4.0081   -2.8990    0.3435 H         1 ACP         0.4440
     34 H3B1        7.8012   -2.3243   -1.9965 H         1 ACP         0.1084
     35 H3B2        6.4756   -1.1693   -2.1001 H         1 ACP         0.1084
     36 H5'1        4.4845    2.9853    0.0383 H         1 ACP         0.0281
     37 H5'2        4.3193    1.3444   -0.6389 H         1 ACP         0.0281
     38 H4'         2.3751    2.7029    1.3156 H         1 ACP         0.1082
     39 H3'         2.4336   -0.1217   -0.0015 H         1 ACP         0.0650
     40 HO3'        3.0987    0.1465    2.1461 H         1 ACP         0.4300
     41 H2'         0.0316    0.0155   -0.0339 H         1 ACP         0.0785
     42 HO2'       -0.1608    0.7921    2.1351 H         1 ACP         0.4275
     43 H1'        -0.1474    2.7798   -0.6651 H         1 ACP         0.1009
     44 H8          2.4442    0.9470   -2.6763 H         1 ACP         0.1067
     45 HN61       -0.2955   -0.1901   -6.4713 H         1 ACP         0.4213
     46 HN62       -1.9987   -0.1045   -6.8334 H         1 ACP         0.4213
     47 H2         -3.9335    1.6716   -3.0534 H         1 ACP         0.0365
@<TRIPOS>BOND
     1    1    2 2
     2    1    3 1
     3    1    4 1
     4    1    8 1
     5    3   32 1
     6    4   33 1
     7    5    6 2
     8    5    7 1
     9    5    8 1
    10    5   12 1
    11    8   34 1
    12    8   35 1
    13    9   10 2
    14    9   11 1
    15    9   12 1
    16    9   13 1
    17   13   14 1
    18   14   15 1
    19   14   36 1
    20   14   37 1
    21   15   16 1
    22   15   17 1
    23   15   38 1
    24   16   21 1
    25   17   18 1
    26   17   19 1
    27   17   39 1
    28   18   40 1
    29   19   20 1
    30   19   21 1
    31   19   41 1
    32   20   42 1
    33   21   22 1
    34   21   43 1
    35   22   23 ar
    36   22   31 ar
    37   23   24 ar
    38   23   44 1
    39   24   25 ar
    40   25   26 ar
    41   25   31 ar
    42   26   27 1
    43   26   28 ar
    44   27   45 1
    45   27   46 1
    46   28   29 ar
    47   29   30 ar
    48   29   47 1
    49   30   31 ar
@<TRIPOS>SUBSTRUCTURE
     1 ACP         1 GROUP 0 A     ****
@<TRIPOS>MOLECULE
[[5-(6-aminopurin-9-yl)-3,4-dihydroxy-tetrahydrofuran-2-yl]methoxy-oxido-phosphoryl]oxy-(phosphonomethyl)phosphinate
   47    49     1     0     0
SMALL
USER_CHARGES

@<TRIPOS>ATOM
      1 PG          1.9815    2.1788   -6.5266 P.3       1 ACP         1.6478
      2 O1G         1.5358    3.2070   -5.5309 O.2       1 ACP        -0.9103
      3 O2G         3.5715    1.8953   -6.5669 O.3       1 ACP        -0.7989
      4 O3G         1.6142    2.5006   -8.0665 O.3       1 ACP        -0.7989
      5 PB         -0.5453    0.2049   -6.3048 P.3       1 ACP         1.4947
      6 O1B        -0.7369   -1.2723   -6.0503 O.co2     1 ACP        -0.8554
      7 O2B        -1.1044    0.8923   -7.5289 O.co2     1 ACP        -0.8554
      8 C3B         1.2741    0.5360   -6.2693 C.3       1 ACP        -0.6550
      9 PA         -2.3605    1.1374   -4.1504 P.3       1 ACP         1.5921
     10 O1A        -2.6576   -0.2202   -3.5510 O.co2     1 ACP        -0.8561
     11 O2A        -3.3777    1.8305   -5.0306 O.co2     1 ACP        -0.8561
     12 O3A        -0.9490    1.0452   -4.9668 O.3       1 ACP        -0.8166
     13 O5'        -1.9208    2.1717   -2.9622 O.3       1 ACP        -0.5737
     14 C5'        -0.7794    1.8744   -2.1748 C.3       1 ACP         0.2197
     15 C4'        -0.9699    2.4597   -0.7819 C.3       1 ACP         0.0944
     16 O4'        -2.1475    1.8640   -0.2014 O.3       1 ACP        -0.4017
     17 C3'         0.1697    2.1347    0.1695 C.3       1 ACP         0.0859
     18 O3'         0.1809    3.0982    1.2223 O.3       1 ACP        -0.5941
     19 C2'        -0.2543    0.7880    0.7187 C.3       1 ACP         0.0924
     20 O2'         0.3606    0.4944    1.9582 O.3       1 ACP        -0.5928
     21 C1'        -1.7682    0.9516    0.8548 C.3       1 ACP         0.3967
     22 N9         -2.5926   -0.2553    0.7436 N.pl3     1 ACP        -0.6763
     23 C8         -3.5599   -0.4866   -0.1983 C.ar      1 ACP         0.5586
     24 N7         -4.1294   -1.6639   -0.0461 N.2       1 ACP        -0.5795
     25 C5         -3.5041   -2.2191    1.0420 C.ar      1 ACP        -0.2116
     26 C6         -3.6604   -3.4390    1.6925 C.ar      1 ACP         0.7185
     27 N6         -4.6108   -4.3735    1.2468 N.pl3     1 ACP        -0.9442
     28 N1         -2.8820   -3.7179    2.7657 N.ar      1 ACP        -0.8040
     29 C2         -1.9837   -2.7784    3.1481 C.ar      1 ACP         0.6560
     30 N3         -1.7408   -1.5668    2.6022 N.ar      1 ACP        -0.7058
     31 C4         -2.5438   -1.3578    1.5483 C.ar      1 ACP         0.5729
     32 HOG2        4.1805    2.6338   -6.7809 H         1 ACP         0.4440
     33 HOG3        1.9654    3.3189   -8.4777 H         1 ACP         0.4440
     34 H3B1        1.7096   -0.1332   -7.0200 H         1 ACP         0.1084
     35 H3B2        1.6225    0.1875   -5.2904 H         1 ACP         0.1084
     36 H5'1       -0.6602    0.7877   -2.1203 H         1 ACP         0.0281
     37 H5'2        0.1041    2.3072   -2.6545 H         1 ACP         0.0281
     38 H4'        -1.1469    3.5409   -0.8522 H         1 ACP         0.1082
     39 H3'         1.1601    2.1310   -0.2934 H         1 ACP         0.0650
     40 HO3'        0.9173    2.8584    1.8048 H         1 ACP         0.4300
     41 H2'        -0.0024   -0.0091    0.0062 H         1 ACP         0.0785
     42 HO2'        1.3225    0.4909    1.8095 H         1 ACP         0.4275
     43 H1'        -2.0584    1.4255    1.8301 H         1 ACP         0.1009
     44 H8         -3.8030    0.2355   -0.9657 H         1 ACP         0.1067
     45 HN61       -5.2130   -4.1372    0.4810 H         1 ACP         0.4213
     46 HN62       -4.7404   -5.2263    1.7576 H         1 ACP         0.4213
     47 H2         -1.3778   -3.0348    4.0107 H         1 ACP         0.0365
@<TRIPOS>BOND
     1    1    2 2
     2    1    3 1
     3    1    4 1
     4    1    8 1
     5    3   32 1
     6    4   33 1
     7    5    6 2
     8    5    7 1
     9    5    8 1
    10    5   12 1
    11    8   34 1
    12    8   35 1
    13    9   10 2
    14    9   11 1
    15    9   12 1
    16    9   13 1
    17   13   14 1
    18   14   15 1
    19   14   36 1
    20   14   37 1
    21   15   16 1
    22   15   17 1
    23   15   38 1
    24   16   21 1
    25   17   18 1
    26   17   19 1
    27   17   39 1
    28   18   40 1
    29   19   20 1
    30   19   21 1
    31   19   41 1
    32   20   42 1
    33   21   22 1
    34   21   43 1
    35   22   23 ar
    36   22   31 ar
    37   23   24 ar
    38   23   44 1
    39   24   25 ar
    40   25   26 ar
    41   25   31 ar
    42   26   27 1
    43   26   28 ar
    44   27   45 1
    45   27   46 1
    46   28   29 ar
    47   29   30 ar
    48   29   47 1
    49   30   31 ar
@<TRIPOS>SUBSTRUCTURE
     1 ACP         1 GROUP 0 A     ****
@<TRIPOS>MOLECULE
[[5-(6-aminopurin-9-yl)-3,4-dihydroxy-tetrahydrofuran-2-yl]methoxy-oxido-phosphoryl]oxy-(phosphonomethyl)phosphinate
   47    49     1     0     0
SMALL
USER_CHARGES

@<TRIPOS>ATOM
      1 PG          1.0826   -0.9748   -5.0083 P.3       1 ACP         1.6478
      2 O1G         1.1225    0.1553   -4.0241 O.2       1 ACP        -0.9103
      3 O2G         1.1444   -2.4563   -4.3667 O.3       1 ACP        -0.7989
      4 O3G         2.2725   -0.9845   -6.1009 O.3       1 ACP        -0.7989
      5 PB         -2.1090   -1.1997   -5.3142 P.3       1 ACP         1.4947
      6 O1B        -2.1451   -2.5056   -4.5547 O.co2     1 ACP        -0.8554
      7 O2B        -3.0931   -0.8787   -6.4150 O.co2     1 ACP        -0.8554
      8 C3B        -0.4104   -1.0256   -6.0252 C.3       1 ACP        -0.6550
      9 PA         -1.9759    1.6544   -4.5128 P.3       1 ACP         1.5921
     10 O1A        -3.2816    2.0899   -5.1421 O.co2     1 ACP        -0.8561
     11 O2A        -0.6544    1.9867   -5.1711 O.co2     1 ACP        -0.8561
     12 O3A        -2.0355    0.0420   -4.2597 O.3       1 ACP        -0.8166
     13 O5'        -1.9208    2.1717   -2.9622 O.3       1 ACP        -0.5737
     14 C5'        -0.7794    1.8744   -2.1748 C.3       1 ACP         0.2197
     15 C4'        -0.9699    2.4597   -0.7819 C.3       1 ACP         0.0944
     16 O4'        -2.1475    1.8640   -0.2014 O.3       1 ACP        -0.4017
     17 C3'         0.1697    2.1347    0.1695 C.3       1 ACP         0.0859
     18 O3'         0.1809    3.0982    1.2223 O.3       1 ACP        -0.5941
     19 C2'        -0.2543    0.7880    0.7187 C.3       1 ACP         0.0924
     20 O2'         0.3606    0.4944    1.9582 O.3       1 ACP        -0.5928
     21 C1'        -1.7682    0.9516    0.8548 C.3       1 ACP         0.3967
     22 N9         -2.5926   -0.2553    0.7436 N.pl3     1 ACP        -0.6763
     23 C8         -3.1120   -0.7726   -0.4135 C.ar      1 ACP         0.5586
     24 N7         -3.8089   -1.8688   -0.1980 N.2       1 ACP        -0.5795
     25 C5         -3.7380   -2.0700    1.1576 C.ar      1 ACP        -0.2116
     26 C6         -4.2662   -3.0526    1.9890 C.ar      1 ACP         0.7185
     27 N6         -5.0420   -4.0987    1.4609 N.pl3     1 ACP        -0.9442
     28 N1         -4.0226   -2.9899    3.3202 N.ar      1 ACP        -0.8040
     29 C2         -3.2679   -1.9585    3.7704 C.ar      1 ACP         0.6560
     30 N3         -2.7045   -0.9514    3.0680 N.ar      1 ACP        -0.7058
     31 C4         -2.9852   -1.0761    1.7622 C.ar      1 ACP         0.5729
     32 HOG2        1.9248   -2.7089   -3.8290 H         1 ACP         0.4440
     33 HOG3        3.2013   -1.0431   -5.7913 H         1 ACP         0.4440
     34 H3B1       -0.4346   -0.1080   -6.6237 H         1 ACP         0.1084
     35 H3B2       -0.2922   -1.8605   -6.7252 H         1 ACP         0.1084
     36 H5'1       -0.6602    0.7877   -2.1203 H         1 ACP         0.0281
     37 H5'2        0.1041    2.3072   -2.6545 H         1 ACP         0.0281
     38 H4'        -1.1469    3.5409   -0.8522 H         1 ACP         0.1082
     39 H3'         1.1601    2.1310   -0.2934 H         1 ACP         0.0650
     40 HO3'        0.9173    2.8584    1.8048 H         1 ACP         0.4300
     41 H2'        -0.0024   -0.0091    0.0062 H         1 ACP         0.0785
     42 HO2'        0.0384   -0.3797    2.2403 H         1 ACP         0.4275
     43 H1'        -2.0584    1.4255    1.8301 H         1 ACP         0.1009
     44 H8         -2.9491   -0.3098   -1.3772 H         1 ACP         0.1067
     45 HN61       -5.2544   -4.1089    0.4813 H         1 ACP         0.4213
     46 HN62       -5.4523   -4.7699    2.0823 H         1 ACP         0.4213
     47 H2         -3.0933   -1.9395    4.8410 H         1 ACP         0.0365
@<TRIPOS>BOND
     1    1    2 2
     2    1    3 1
     3    1    4 1
     4    1    8 1
     5    3   32 1
     6    4   33 1
     7    5    6 2
     8    5    7 1
     9    5    8 1
    10    5   12 1
    11    8   34 1
    12    8   35 1
    13    9   10 2
    14    9   11 1
    15    9   12 1
    16    9   13 1
    17   13   14 1
    18   14   15 1
    19   14   36 1
    20   14   37 1
    21   15   16 1
    22   15   17 1
    23   15   38 1
    24   16   21 1
    25   17   18 1
    26   17   19 1
    27   17   39 1
    28   18   40 1
    29   19   20 1
    30   19   21 1
    31   19   41 1
    32   20   42 1
    33   21   22 1
    34   21   43 1
    35   22   23 ar
    36   22   31 ar
    37   23   24 ar
    38   23   44 1
    39   24   25 ar
    40   25   26 ar
    41   25   31 ar
    42   26   27 1
    43   26   28 ar
    44   27   45 1
    45   27   46 1
    46   28   29 ar
    47   29   30 ar
    48   29   47 1
    49   30   31 ar
@<TRIPOS>SUBSTRUCTURE
     1 ACP         1 GROUP 0 A     ****
@<TRIPOS>MOLECULE
[[5-(6-aminopurin-9-yl)-3,4-dihydroxy-tetrahydrofuran-2-yl]methoxy-oxido-phosphoryl]oxy-(phosphonomethyl)phosphinate
   47    49     1     0     0
SMALL
USER_CHARGES

@<TRIPOS>ATOM
      1 PG         -2.5445    7.1196   -0.2942 P.3       1 ACP         1.6478
      2 O1G        -2.8178    5.6633   -0.5216 O.2       1 ACP        -0.9103
      3 O2G        -3.7823    7.9742    0.2956 O.3       1 ACP        -0.7989
      4 O3G        -2.0975    7.9534   -1.6036 O.3       1 ACP        -0.7989
      5 PB         -1.2569    6.8883    2.6416 P.3       1 ACP         1.4947
      6 O1B        -2.4715    7.5171    3.2841 O.co2     1 ACP        -0.8554
      7 O2B         0.1347    7.0610    3.2048 O.co2     1 ACP        -0.8554
      8 C3B        -1.2131    7.4538    0.8811 C.3       1 ACP        -0.6550
      9 PA         -1.9154    4.0917    3.3841 P.3       1 ACP         1.5921
     10 O1A        -3.2739    4.3706    3.9902 O.co2     1 ACP        -0.8561
     11 O2A        -0.7157    3.8308    4.2687 O.co2     1 ACP        -0.8561
     12 O3A        -1.5461    5.3085    2.3591 O.3       1 ACP        -0.8166
     13 O5'        -2.0402    2.8619    2.3132 O.3       1 ACP        -0.5737
     14 C5'        -0.8811    2.4285    1.6206 C.3       1 ACP         0.2197
     15 C4'        -0.1994    1.3333    2.4288 C.3       1 ACP         0.0944
     16 O4'        -1.1285    0.2356    2.5840 O.3       1 ACP        -0.4017
     17 C3'         1.0324    0.7610    1.7344 C.3       1 ACP         0.0859
     18 O3'         1.9175    0.2377    2.7247 O.3       1 ACP        -0.5941
     19 C2'         0.4468   -0.3802    0.9263 C.3       1 ACP         0.0924
     20 O2'         1.3993   -1.3703    0.5961 O.3       1 ACP        -0.5928
     21 C1'        -0.6159   -0.9100    1.8769 C.3       1 ACP         0.3967
     22 N9         -1.7127   -1.6108    1.2130 N.pl3     1 ACP        -0.6763
     23 C8         -1.7712   -2.9546    0.9544 C.ar      1 ACP         0.5586
     24 N7         -2.8883   -3.2948    0.3462 N.2       1 ACP        -0.5795
     25 C5         -3.5834   -2.1202    0.2043 C.ar      1 ACP        -0.2116
     26 C6         -4.8225   -1.8251   -0.3554 C.ar      1 ACP         0.7185
     27 N6         -5.6154   -2.8394   -0.9189 N.pl3     1 ACP        -0.9442
     28 N1         -5.2589   -0.5425   -0.3507 N.ar      1 ACP        -0.8040
     29 C2         -4.4510    0.3913    0.2069 C.ar      1 ACP         0.6560
     30 N3         -3.2368    0.2296    0.7767 N.ar      1 ACP        -0.7058
     31 C4         -2.8684   -1.0596    0.7376 C.ar      1 ACP         0.5729
     32 HOG2       -4.6151    8.0222   -0.2205 H         1 ACP         0.4440
     33 HOG3       -2.7083    7.9985   -2.3696 H         1 ACP         0.4440
     34 H3B1       -0.2896    7.0390    0.4617 H         1 ACP         0.1084
     35 H3B2       -1.0861    8.5417    0.9195 H         1 ACP         0.1084
     36 H5'1       -1.1771    2.0504    0.6370 H         1 ACP         0.0281
     37 H5'2       -0.2083    3.2816    1.4878 H         1 ACP         0.0281
     38 H4'         0.0403    1.7078    3.4343 H         1 ACP         0.1082
     39 H3'         1.5906    1.4859    1.1353 H         1 ACP         0.0650
     40 HO3'        2.6839   -0.1150    2.2479 H         1 ACP         0.4300
     41 H2'        -0.0017    0.0018    0.0005 H         1 ACP         0.0785
     42 HO2'        2.0953   -0.9375    0.0709 H         1 ACP         0.4275
     43 H1'        -0.1998   -1.6319    2.6178 H         1 ACP         0.1009
     44 H8         -0.9745   -3.6312    1.2318 H         1 ACP         0.1067
     45 HN61       -5.2619   -3.7766   -0.9586 H         1 ACP         0.4213
     46 HN62       -6.4834   -2.5990   -1.3590 H         1 ACP         0.4213
     47 H2         -4.8317    1.4071    0.1930 H         1 ACP         0.0365
@<TRIPOS>BOND
     1    1    2 2
     2    1    3 1
     3    1    4 1
     4    1    8 1
     5    3   32 1
     6    4   33 1
     7    5    6 2
     8    5    7 1
     9    5    8 1
    10    5   12 1
    11    8   34 1
    12    8   35 1
    13    9   10 2
    14    9   11 1
    15    9   12 1
    16    9   13 1
    17   13   14 1
    18   14   15 1
    19   14   36 1
    20   14   37 1
    21   15   16 1
    22   15   17 1
    23   15   38 1
    24   16   21 1
    25   17   18 1
    26   17   19 1
    27   17   39 1
    28   18   40 1
    29   19   20 1
    30   19   21 1
    31   19   41 1
    32   20   42 1
    33   21   22 1
    34   21   43 1
    35   22   23 ar
    36   22   31 ar
    37   23   24 ar
    38   23   44 1
    39   24   25 ar
    40   25   26 ar
    41   25   31 ar
    42   26   27 1
    43   26   28 ar
    44   27   45 1
    45   27   46 1
    46   28   29 ar
    47   29   30 ar
    48   29   47 1
    49   30   31 ar
@<TRIPOS>SUBSTRUCTURE
     1 ACP         1 GROUP 0 A     ****
@<TRIPOS>MOLECULE
[[5-(6-aminopurin-9-yl)-3,4-dihydroxy-tetrahydrofuran-2-yl]methoxy-oxido-phosphoryl]oxy-(phosphonomethyl)phosphinate
   47    49     1     0     0
SMALL
USER_CHARGES

@<TRIPOS>ATOM
      1 PG         -2.1930    4.4390    6.3826 P.3       1 ACP         1.6478
      2 O1G        -2.6672    3.6772    7.5835 O.2       1 ACP        -0.9103
      3 O2G        -1.1220    3.6684    5.4503 O.3       1 ACP        -0.7989
      4 O3G        -1.4751    5.8516    6.6973 O.3       1 ACP        -0.7989
      5 PB         -3.1851    5.8338    3.6623 P.3       1 ACP         1.4947
      6 O1B        -2.5766    7.1600    4.0554 O.co2     1 ACP        -0.8554
      7 O2B        -4.4337    5.7377    2.8165 O.co2     1 ACP        -0.8554
      8 C3B        -3.5021    4.8921    5.2222 C.3       1 ACP        -0.6550
      9 PA         -1.0481    5.0552    1.7563 P.3       1 ACP         1.5921
     10 O1A        -0.1188    6.2188    2.0266 O.co2     1 ACP        -0.8561
     11 O2A        -1.8976    5.0221    0.5044 O.co2     1 ACP        -0.8561
     12 O3A        -2.0269    4.8631    3.0495 O.3       1 ACP        -0.8166
     13 O5'        -0.2059    3.6558    1.8419 O.3       1 ACP        -0.5737
     14 C5'        -0.8811    2.4285    1.6206 C.3       1 ACP         0.2197
     15 C4'        -0.1994    1.3333    2.4288 C.3       1 ACP         0.0944
     16 O4'        -1.1285    0.2356    2.5840 O.3       1 ACP        -0.4017
     17 C3'         1.0324    0.7610    1.7344 C.3       1 ACP         0.0859
     18 O3'         1.9175    0.2377    2.7247 O.3       1 ACP        -0.5941
     19 C2'         0.4468   -0.3802    0.9263 C.3       1 ACP         0.0924
     20 O2'         1.3993   -1.3703    0.5961 O.3       1 ACP        -0.5928
     21 C1'        -0.6159   -0.9100    1.8769 C.3       1 ACP         0.3967
     22 N9         -1.7127   -1.6108    1.2130 N.pl3     1 ACP        -0.6763
     23 C8         -2.5476   -1.0844    0.2632 C.ar      1 ACP         0.5586
     24 N7         -3.4391   -1.9591   -0.1536 N.2       1 ACP        -0.5795
     25 C5         -3.1701   -3.1016    0.5574 C.ar      1 ACP        -0.2116
     26 C6         -3.7593   -4.3620    0.5656 C.ar      1 ACP         0.7185
     27 N6         -4.8512   -4.6493   -0.2712 N.pl3     1 ACP        -0.9442
     28 N1         -3.2659   -5.3144    1.3932 N.ar      1 ACP        -0.8040
     29 C2         -2.2122   -4.9785    2.1759 C.ar      1 ACP         0.6560
     30 N3         -1.5595   -3.7985    2.2572 N.ar      1 ACP        -0.7058
     31 C4         -2.0986   -2.9054    1.4140 C.ar      1 ACP         0.5729
     32 HOG2       -0.2663    3.3898    5.8404 H         1 ACP         0.4440
     33 HOG3       -0.6661    5.8603    7.2517 H         1 ACP         0.4440
     34 H3B1       -4.0033    3.9684    4.9116 H         1 ACP         0.1084
     35 H3B2       -4.2368    5.4810    5.7831 H         1 ACP         0.1084
     36 H5'1       -1.9255    2.5383    1.9294 H         1 ACP         0.0281
     37 H5'2       -0.8472    2.1934    0.5521 H         1 ACP         0.0281
     38 H4'         0.0403    1.7078    3.4343 H         1 ACP         0.1082
     39 H3'         1.5906    1.4859    1.1353 H         1 ACP         0.0650
     40 HO3'        2.6839   -0.1150    2.2479 H         1 ACP         0.4300
     41 H2'        -0.0017    0.0018    0.0005 H         1 ACP         0.0785
     42 HO2'        0.9369   -2.0558    0.0825 H         1 ACP         0.4275
     43 H1'        -0.1998   -1.6319    2.6178 H         1 ACP         0.1009
     44 H8         -2.4576   -0.0639   -0.0831 H         1 ACP         0.1067
     45 HN61       -5.2371   -3.9234   -0.8448 H         1 ACP         0.4213
     46 HN62       -5.2909   -5.5485   -0.2160 H         1 ACP         0.4213
     47 H2         -1.8433   -5.7650    2.8259 H         1 ACP         0.0365
@<TRIPOS>BOND
     1    1    2 2
     2    1    3 1
     3    1    4 1
     4    1    8 1
     5    3   32 1
     6    4   33 1
     7    5    6 2
     8    5    7 1
     9    5    8 1
    10    5   12 1
    11    8   34 1
    12    8   35 1
    13    9   10 2
    14    9   11 1
    15    9   12 1
    16    9   13 1
    17   13   14 1
    18   14   15 1
    19   14   36 1
    20   14   37 1
    21   15   16 1
    22   15   17 1
    23   15   38 1
    24   16   21 1
    25   17   18 1
    26   17   19 1
    27   17   39 1
    28   18   40 1
    29   19   20 1
    30   19   21 1
    31   19   41 1
    32   20   42 1
    33   21   22 1
    34   21   43 1
    35   22   23 ar
    36   22   31 ar
    37   23   24 ar
    38   23   44 1
    39   24   25 ar
    40   25   26 ar
    41   25   31 ar
    42   26   27 1
    43   26   28 ar
    44   27   45 1
    45   27   46 1
    46   28   29 ar
    47   29   30 ar
    48   29   47 1
    49   30   31 ar
@<TRIPOS>SUBSTRUCTURE
     1 ACP         1 GROUP 0 A     ****
@<TRIPOS>MOLECULE
[[5-(6-aminopurin-9-yl)-3,4-dihydroxy-tetrahydrofuran-2-yl]methoxy-oxido-phosphoryl]oxy-(phosphonomethyl)phosphinate
   47    49     1     0     0
SMALL
USER_CHARGES

@<TRIPOS>ATOM
      1 PG         -5.2447    3.8317    2.6917 P.3       1 ACP         1.6478
      2 O1G        -3.9843    3.1245    3.0900 O.2       1 ACP        -0.9103
      3 O2G        -5.1601    5.4450    2.6762 O.3       1 ACP        -0.7989
      4 O3G        -6.5322    3.5282    3.6190 O.3       1 ACP        -0.7989
      5 PB         -4.8299    3.7419   -0.4942 P.3       1 ACP         1.4947
      6 O1B        -4.5564    5.2268   -0.5559 O.co2     1 ACP        -0.8554
      7 O2B        -5.4932    2.9955   -1.6285 O.co2     1 ACP        -0.8554
      8 C3B        -5.8309    3.4315    1.0298 C.3       1 ACP        -0.6550
      9 PA         -1.9976    2.8864   -0.7224 P.3       1 ACP         1.5921
     10 O1A        -1.3773    4.2659   -0.6697 O.co2     1 ACP        -0.8561
     11 O2A        -2.1168    2.1447   -2.0361 O.co2     1 ACP        -0.8561
     12 O3A        -3.4767    2.9572   -0.0335 O.3       1 ACP        -0.8166
     13 O5'        -1.2434    1.9101    0.3513 O.3       1 ACP        -0.5737
     14 C5'        -0.8811    2.4285    1.6206 C.3       1 ACP         0.2197
     15 C4'        -0.1994    1.3333    2.4288 C.3       1 ACP         0.0944
     16 O4'        -1.1285    0.2356    2.5840 O.3       1 ACP        -0.4017
     17 C3'         1.0324    0.7610    1.7344 C.3       1 ACP         0.0859
     18 O3'         1.9175    0.2377    2.7247 O.3       1 ACP        -0.5941
     19 C2'         0.4468   -0.3802    0.9263 C.3       1 ACP         0.0924
     20 O2'         1.3993   -1.3703    0.5961 O.3       1 ACP        -0.5928
     21 C1'        -0.6159   -0.9100    1.8769 C.3       1 ACP         0.3967
     22 N9         -1.7127   -1.6108    1.2130 N.pl3     1 ACP        -0.6763
     23 C8         -2.8641   -1.0399    0.7392 C.ar      1 ACP         0.5586
     24 N7         -3.6659   -1.9257    0.1858 N.2       1 ACP        -0.5795
     25 C5         -3.0053   -3.1223    0.3069 C.ar      1 ACP        -0.2116
     26 C6         -3.3321   -4.4178   -0.0813 C.ar      1 ACP         0.7185
     27 N6         -4.5476   -4.6866   -0.7335 N.pl3     1 ACP        -0.9442
     28 N1         -2.4608   -5.4225    0.1773 N.ar      1 ACP        -0.8040
     29 C2         -1.3053   -5.1020    0.8081 C.ar      1 ACP         0.6560
     30 N3         -0.8788   -3.8921    1.2315 N.ar      1 ACP        -0.7058
     31 C4         -1.7870   -2.9477    0.9438 C.ar      1 ACP         0.5729
     32 HOG2       -4.9396    5.9172    3.5071 H         1 ACP         0.4440
     33 HOG3       -6.4922    3.7478    4.5741 H         1 ACP         0.4440
     34 H3B1       -6.0704    2.3623    1.0118 H         1 ACP         0.1084
     35 H3B2       -6.7729    3.9724    0.8842 H         1 ACP         0.1084
     36 H5'1       -0.2035    3.2759    1.4765 H         1 ACP         0.0281
     37 H5'2       -1.7842    2.7761    2.1320 H         1 ACP         0.0281
     38 H4'         0.0403    1.7078    3.4343 H         1 ACP         0.1082
     39 H3'         1.5906    1.4859    1.1353 H         1 ACP         0.0650
     40 HO3'        2.6839   -0.1150    2.2479 H         1 ACP         0.4300
     41 H2'        -0.0017    0.0018    0.0005 H         1 ACP         0.0785
     42 HO2'        2.0953   -0.9375    0.0709 H         1 ACP         0.4275
     43 H1'        -0.1998   -1.6319    2.6178 H         1 ACP         0.1009
     44 H8         -3.0609    0.0200    0.8250 H         1 ACP         0.1067
     45 HN61       -5.2046   -3.9433   -0.8775 H         1 ACP         0.4213
     46 HN62       -4.7849   -5.6332   -0.9625 H         1 ACP         0.4213
     47 H2         -0.6318   -5.9307    0.9993 H         1 ACP         0.0365
@<TRIPOS>BOND
     1    1    2 2
     2    1    3 1
     3    1    4 1
     4    1    8 1
     5    3   32 1
     6    4   33 1
     7    5    6 2
     8    5    7 1
     9    5    8 1
    10    5   12 1
    11    8   34 1
    12    8   35 1
    13    9   10 2
    14    9   11 1
    15    9   12 1
    16    9   13 1
    17   13   14 1
    18   14   15 1
    19   14   36 1
    20   14   37 1
    21   15   16 1
    22   15   17 1
    23   15   38 1
    24   16   21 1
    25   17   18 1
    26   17   19 1
    27   17   39 1
    28   18   40 1
    29   19   20 1
    30   19   21 1
    31   19   41 1
    32   20   42 1
    33   21   22 1
    34   21   43 1
    35   22   23 ar
    36   22   31 ar
    37   23   24 ar
    38   23   44 1
    39   24   25 ar
    40   25   26 ar
    41   25   31 ar
    42   26   27 1
    43   26   28 ar
    44   27   45 1
    45   27   46 1
    46   28   29 ar
    47   29   30 ar
    48   29   47 1
    49   30   31 ar
@<TRIPOS>SUBSTRUCTURE
     1 ACP         1 GROUP 0 A     ****
@<TRIPOS>MOLECULE
[[5-(6-aminopurin-9-yl)-3,4-dihydroxy-tetrahydrofuran-2-yl]methoxy-oxido-phosphoryl]oxy-(phosphonomethyl)phosphinate
   47    49     1     0     0
SMALL
USER_CHARGES

@<TRIPOS>ATOM
      1 PG          0.7738   -2.5086   -2.2514 P.3       1 ACP         1.6478
      2 O1G        -0.5143   -2.0069   -2.8313 O.2       1 ACP        -0.9103
      3 O2G         1.0228   -4.0992   -2.3865 O.3       1 ACP        -0.7989
      4 O3G         0.9808   -2.2247   -0.6746 O.3       1 ACP        -0.7989
      5 PB          2.6171    0.0215   -2.9799 P.3       1 ACP         1.4947
      6 O1B         3.9334    0.2229   -3.6943 O.co2     1 ACP        -0.8554
      7 O2B         2.3793    0.5150   -1.5715 O.co2     1 ACP        -0.8554
      8 C3B         2.2560   -1.7924   -2.9967 C.3       1 ACP        -0.6550
      9 PA          0.8118    1.9901   -4.2726 P.3       1 ACP         1.5921
     10 O1A        -0.4259    1.8446   -5.1315 O.co2     1 ACP        -0.8561
     11 O2A         1.9622    2.8653   -4.7205 O.co2     1 ACP        -0.8561
     12 O3A         1.3938    0.4993   -3.9465 O.3       1 ACP        -0.8166
     13 O5'         0.3757    2.4482   -2.7643 O.3       1 ACP        -0.5737
     14 C5'        -0.7794    1.8744   -2.1748 C.3       1 ACP         0.2197
     15 C4'        -0.9699    2.4597   -0.7819 C.3       1 ACP         0.0944
     16 O4'        -2.1475    1.8640   -0.2014 O.3       1 ACP        -0.4017
     17 C3'         0.1697    2.1347    0.1695 C.3       1 ACP         0.0859
     18 O3'         0.1809    3.0982    1.2223 O.3       1 ACP        -0.5941
     19 C2'        -0.2543    0.7880    0.7187 C.3       1 ACP         0.0924
     20 O2'         0.3606    0.4944    1.9582 O.3       1 ACP        -0.5928
     21 C1'        -1.7682    0.9516    0.8548 C.3       1 ACP         0.3967
     22 N9         -2.5926   -0.2553    0.7436 N.pl3     1 ACP        -0.6763
     23 C8         -3.5599   -0.4866   -0.1983 C.ar      1 ACP         0.5586
     24 N7         -4.1294   -1.6639   -0.0461 N.2       1 ACP        -0.5795
     25 C5         -3.5041   -2.2191    1.0420 C.ar      1 ACP        -0.2116
     26 C6         -3.6604   -3.4390    1.6925 C.ar      1 ACP         0.7185
     27 N6         -4.6108   -4.3735    1.2468 N.pl3     1 ACP        -0.9442
     28 N1         -2.8820   -3.7179    2.7657 N.ar      1 ACP        -0.8040
     29 C2         -1.9837   -2.7784    3.1481 C.ar      1 ACP         0.6560
     30 N3         -1.7408   -1.5668    2.6022 N.ar      1 ACP        -0.7058
     31 C4         -2.5438   -1.3578    1.5483 C.ar      1 ACP         0.5729
     32 HOG2        0.3827   -4.7170   -1.9733 H         1 ACP         0.4440
     33 HOG3        0.3350   -2.5956   -0.0362 H         1 ACP         0.4440
     34 H3B1        3.1250   -2.2697   -2.5297 H         1 ACP         0.1084
     35 H3B2        2.2580   -2.0880   -4.0520 H         1 ACP         0.1084
     36 H5'1       -1.6462    2.0968   -2.8052 H         1 ACP         0.0281
     37 H5'2       -0.6469    0.7893   -2.1194 H         1 ACP         0.0281
     38 H4'        -1.1469    3.5409   -0.8522 H         1 ACP         0.1082
     39 H3'         1.1601    2.1310   -0.2934 H         1 ACP         0.0650
     40 HO3'        0.3098    3.9616    0.8017 H         1 ACP         0.4300
     41 H2'        -0.0024   -0.0091    0.0062 H         1 ACP         0.0785
     42 HO2'        0.0972    1.1923    2.5835 H         1 ACP         0.4275
     43 H1'        -2.0584    1.4255    1.8301 H         1 ACP         0.1009
     44 H8         -3.8030    0.2355   -0.9657 H         1 ACP         0.1067
     45 HN61       -5.2130   -4.1372    0.4810 H         1 ACP         0.4213
     46 HN62       -4.7404   -5.2263    1.7576 H         1 ACP         0.4213
     47 H2         -1.3778   -3.0348    4.0107 H         1 ACP         0.0365
@<TRIPOS>BOND
     1    1    2 2
     2    1    3 1
     3    1    4 1
     4    1    8 1
     5    3   32 1
     6    4   33 1
     7    5    6 2
     8    5    7 1
     9    5    8 1
    10    5   12 1
    11    8   34 1
    12    8   35 1
    13    9   10 2
    14    9   11 1
    15    9   12 1
    16    9   13 1
    17   13   14 1
    18   14   15 1
    19   14   36 1
    20   14   37 1
    21   15   16 1
    22   15   17 1
    23   15   38 1
    24   16   21 1
    25   17   18 1
    26   17   19 1
    27   17   39 1
    28   18   40 1
    29   19   20 1
    30   19   21 1
    31   19   41 1
    32   20   42 1
    33   21   22 1
    34   21   43 1
    35   22   23 ar
    36   22   31 ar
    37   23   24 ar
    38   23   44 1
    39   24   25 ar
    40   25   26 ar
    41   25   31 ar
    42   26   27 1
    43   26   28 ar
    44   27   45 1
    45   27   46 1
    46   28   29 ar
    47   29   30 ar
    48   29   47 1
    49   30   31 ar
@<TRIPOS>SUBSTRUCTURE
     1 ACP         1 GROUP 0 A     ****
@<TRIPOS>MOLECULE
[[5-(6-aminopurin-9-yl)-3,4-dihydroxy-tetrahydrofuran-2-yl]methoxy-oxido-phosphoryl]oxy-(phosphonomethyl)phosphinate
   47    49     1     0     0
SMALL
USER_CHARGES

@<TRIPOS>ATOM
      1 PG          5.6086    5.2483   -4.0038 P.3       1 ACP         1.6478
      2 O1G         5.8145    4.9346   -5.4552 O.2       1 ACP        -0.9103
      3 O2G         4.3202    4.5539   -3.3197 O.3       1 ACP        -0.7989
      4 O3G         5.4267    6.8146   -3.6525 O.3       1 ACP        -0.7989
      5 PB          7.5294    2.9851   -2.7717 P.3       1 ACP         1.4947
      6 O1B         8.6795    2.9676   -1.7916 O.co2     1 ACP        -0.8554
      7 O2B         7.6511    2.4229   -4.1691 O.co2     1 ACP        -0.8554
      8 C3B         6.9712    4.7413   -2.9307 C.3       1 ACP        -0.6550
      9 PA          5.8978    0.9307   -1.3850 P.3       1 ACP         1.5921
     10 O1A         6.7853    0.7713   -0.1696 O.co2     1 ACP        -0.8561
     11 O2A         5.9043   -0.1078   -2.4857 O.co2     1 ACP        -0.8561
     12 O3A         6.1915    2.3921   -2.0524 O.3       1 ACP        -0.8166
     13 O5'         4.3514    1.1573   -0.9028 O.3       1 ACP        -0.5737
     14 C5'         4.0922    1.9801    0.2227 C.3       1 ACP         0.2197
     15 C4'         2.5944    2.0310    0.4653 C.3       1 ACP         0.0944
     16 O4'         1.9327    2.5740   -0.6889 O.3       1 ACP        -0.4017
     17 C3'         1.9685    0.6634    0.6767 C.3       1 ACP         0.0859
     18 O3'         2.1425    0.1975    1.9977 O.3       1 ACP        -0.5941
     19 C2'         0.5176    0.9128    0.3099 C.3       1 ACP         0.0924
     20 O2'        -0.2103    1.4454    1.4152 O.3       1 ACP        -0.5928
     21 C1'         0.6219    1.9765   -0.7844 C.3       1 ACP         0.3967
     22 N9          0.4237    1.4496   -2.1357 N.pl3     1 ACP        -0.6763
     23 C8          1.4026    0.9717   -2.9660 C.ar      1 ACP         0.5586
     24 N7          0.9183    0.5619   -4.1197 N.2       1 ACP        -0.5795
     25 C5         -0.4330    0.7845   -4.0331 C.ar      1 ACP        -0.2116
     26 C6         -1.4794    0.5615   -4.9225 C.ar      1 ACP         0.7185
     27 N6         -1.2378    0.0044   -6.1899 N.pl3     1 ACP        -0.9442
     28 N1         -2.7406    0.8885   -4.5512 N.ar      1 ACP        -0.8040
     29 C2         -2.9113    1.4216   -3.3172 C.ar      1 ACP         0.6560
     30 N3         -1.9824    1.6843   -2.3721 N.ar      1 ACP        -0.7058
     31 C4         -0.7613    1.3370   -2.8054 C.ar      1 ACP         0.5729
     32 HOG2        3.4284    4.7501   -3.6780 H         1 ACP         0.4440
     33 HOG3        4.6808    7.3083   -4.0548 H         1 ACP         0.4440
     34 H3B1        7.8597    5.3060   -3.2347 H         1 ACP         0.1084
     35 H3B2        6.7173    5.0674   -1.9156 H         1 ACP         0.1084
     36 H5'1        4.6070    1.5616    1.0933 H         1 ACP         0.0281
     37 H5'2        4.4825    2.9835    0.0251 H         1 ACP         0.0281
     38 H4'         2.3751    2.7029    1.3156 H         1 ACP         0.1082
     39 H3'         2.4336   -0.1217   -0.0015 H         1 ACP         0.0650
     40 HO3'        1.7160   -0.6716    2.0397 H         1 ACP         0.4300
     41 H2'         0.0316    0.0155   -0.0339 H         1 ACP         0.0785
     42 HO2'       -0.1608    0.7921    2.1351 H         1 ACP         0.4275
     43 H1'        -0.1474    2.7798   -0.6651 H         1 ACP         0.1009
     44 H8          2.4442    0.9470   -2.6763 H         1 ACP         0.1067
     45 HN61       -0.2955   -0.1901   -6.4713 H         1 ACP         0.4213
     46 HN62       -1.9987   -0.1045   -6.8334 H         1 ACP         0.4213
     47 H2         -3.9335    1.6716   -3.0534 H         1 ACP         0.0365
@<TRIPOS>BOND
     1    1    2 2
     2    1    3 1
     3    1    4 1
     4    1    8 1
     5    3   32 1
     6    4   33 1
     7    5    6 2
     8    5    7 1
     9    5    8 1
    10    5   12 1
    11    8   34 1
    12    8   35 1
    13    9   10 2
    14    9   11 1
    15    9   12 1
    16    9   13 1
    17   13   14 1
    18   14   15 1
    19   14   36 1
    20   14   37 1
    21   15   16 1
    22   15   17 1
    23   15   38 1
    24   16   21 1
    25   17   18 1
    26   17   19 1
    27   17   39 1
    28   18   40 1
    29   19   20 1
    30   19   21 1
    31   19   41 1
    32   20   42 1
    33   21   22 1
    34   21   43 1
    35   22   23 ar
    36   22   31 ar
    37   23   24 ar
    38   23   44 1
    39   24   25 ar
    40   25   26 ar
    41   25   31 ar
    42   26   27 1
    43   26   28 ar
    44   27   45 1
    45   27   46 1
    46   28   29 ar
    47   29   30 ar
    48   29   47 1
    49   30   31 ar
@<TRIPOS>SUBSTRUCTURE
     1 ACP         1 GROUP 0 A     ****
@<TRIPOS>MOLECULE
[[5-(6-aminopurin-9-yl)-3,4-dihydroxy-tetrahydrofuran-2-yl]methoxy-oxido-phosphoryl]oxy-(phosphonomethyl)phosphinate
   47    49     1     0     0
SMALL
USER_CHARGES

@<TRIPOS>ATOM
      1 PG         -1.7349    3.1665   -7.2598 P.3       1 ACP         1.6478
      2 O1G        -3.0642    3.4867   -7.8744 O.2       1 ACP        -0.9103
      3 O2G        -1.5514    3.6288   -5.7227 O.3       1 ACP        -0.7989
      4 O3G        -0.4540    3.8098   -8.0050 O.3       1 ACP        -0.7989
      5 PB          0.2354    0.7416   -6.5061 P.3       1 ACP         1.4947
      6 O1B         1.3703    1.3435   -7.3019 O.co2     1 ACP        -0.8554
      7 O2B         0.0650   -0.7513   -6.3454 O.co2     1 ACP        -0.8554
      8 C3B        -1.3408    1.4035   -7.2120 C.3       1 ACP        -0.6550
      9 PA          1.2406    1.5710   -3.8401 P.3       1 ACP         1.5921
     10 O1A         2.4169    2.3898   -4.3266 O.co2     1 ACP        -0.8561
     11 O2A         1.4502    0.1871   -3.2648 O.co2     1 ACP        -0.8561
     12 O3A         0.1468    1.4675   -5.0486 O.3       1 ACP        -0.8166
     13 O5'         0.3757    2.4482   -2.7643 O.3       1 ACP        -0.5737
     14 C5'        -0.7794    1.8744   -2.1748 C.3       1 ACP         0.2197
     15 C4'        -0.9699    2.4597   -0.7819 C.3       1 ACP         0.0944
     16 O4'        -2.1475    1.8640   -0.2014 O.3       1 ACP        -0.4017
     17 C3'         0.1697    2.1347    0.1695 C.3       1 ACP         0.0859
     18 O3'         0.1809    3.0982    1.2223 O.3       1 ACP        -0.5941
     19 C2'        -0.2543    0.7880    0.7187 C.3       1 ACP         0.0924
     20 O2'         0.3606    0.4944    1.9582 O.3       1 ACP        -0.5928
     21 C1'        -1.7682    0.9516    0.8548 C.3       1 ACP         0.3967
     22 N9         -2.5926   -0.2553    0.7436 N.pl3     1 ACP        -0.6763
     23 C8         -3.1120   -0.7726   -0.4135 C.ar      1 ACP         0.5586
     24 N7         -3.8089   -1.8688   -0.1980 N.2       1 ACP        -0.5795
     25 C5         -3.7380   -2.0700    1.1576 C.ar      1 ACP        -0.2116
     26 C6         -4.2662   -3.0526    1.9890 C.ar      1 ACP         0.7185
     27 N6         -5.0420   -4.0987    1.4609 N.pl3     1 ACP        -0.9442
     28 N1         -4.0226   -2.9899    3.3202 N.ar      1 ACP        -0.8040
     29 C2         -3.2679   -1.9585    3.7704 C.ar      1 ACP         0.6560
     30 N3         -2.7045   -0.9514    3.0680 N.ar      1 ACP        -0.7058
     31 C4         -2.9852   -1.0761    1.7622 C.ar      1 ACP         0.5729
     32 HOG2       -1.6318    4.5807   -5.5001 H         1 ACP         0.4440
     33 HOG3       -0.3901    4.7854   -8.0831 H         1 ACP         0.4440
     34 H3B1       -2.1439    0.8997   -6.6623 H         1 ACP         0.1084
     35 H3B2       -1.3827    1.0384   -8.2445 H         1 ACP         0.1084
     36 H5'1       -1.6462    2.0968   -2.8052 H         1 ACP         0.0281
     37 H5'2       -0.6469    0.7893   -2.1194 H         1 ACP         0.0281
     38 H4'        -1.1469    3.5409   -0.8522 H         1 ACP         0.1082
     39 H3'         1.1601    2.1310   -0.2934 H         1 ACP         0.0650
     40 HO3'        0.3098    3.9616    0.8017 H         1 ACP         0.4300
     41 H2'        -0.0024   -0.0091    0.0062 H         1 ACP         0.0785
     42 HO2'        0.0384   -0.3797    2.2403 H         1 ACP         0.4275
     43 H1'        -2.0584    1.4255    1.8301 H         1 ACP         0.1009
     44 H8         -2.9491   -0.3098   -1.3772 H         1 ACP         0.1067
     45 HN61       -5.2544   -4.1089    0.4813 H         1 ACP         0.4213
     46 HN62       -5.4523   -4.7699    2.0823 H         1 ACP         0.4213
     47 H2         -3.0933   -1.9395    4.8410 H         1 ACP         0.0365
@<TRIPOS>BOND
     1    1    2 2
     2    1    3 1
     3    1    4 1
     4    1    8 1
     5    3   32 1
     6    4   33 1
     7    5    6 2
     8    5    7 1
     9    5    8 1
    10    5   12 1
    11    8   34 1
    12    8   35 1
    13    9   10 2
    14    9   11 1
    15    9   12 1
    16    9   13 1
    17   13   14 1
    18   14   15 1
    19   14   36 1
    20   14   37 1
    21   15   16 1
    22   15   17 1
    23   15   38 1
    24   16   21 1
    25   17   18 1
    26   17   19 1
    27   17   39 1
    28   18   40 1
    29   19   20 1
    30   19   21 1
    31   19   41 1
    32   20   42 1
    33   21   22 1
    34   21   43 1
    35   22   23 ar
    36   22   31 ar
    37   23   24 ar
    38   23   44 1
    39   24   25 ar
    40   25   26 ar
    41   25   31 ar
    42   26   27 1
    43   26   28 ar
    44   27   45 1
    45   27   46 1
    46   28   29 ar
    47   29   30 ar
    48   29   47 1
    49   30   31 ar
@<TRIPOS>SUBSTRUCTURE
     1 ACP         1 GROUP 0 A     ****
@<TRIPOS>MOLECULE
[[5-(6-aminopurin-9-yl)-3,4-dihydroxy-tetrahydrofuran-2-yl]methoxy-oxido-phosphoryl]oxy-(phosphonomethyl)phosphinate
   47    49     1     0     0
SMALL
USER_CHARGES

@<TRIPOS>ATOM
      1 PG          3.2194   -1.9785   -2.2633 P.3       1 ACP         1.6478
      2 O1G         2.9707   -0.8388   -1.3218 O.2       1 ACP        -0.9103
      3 O2G         3.0428   -3.4538   -1.6289 O.3       1 ACP        -0.7989
      4 O3G         4.6933   -2.0231   -2.9232 O.3       1 ACP        -0.7989
      5 PB          2.0329   -0.6333   -4.9303 P.3       1 ACP         1.4947
      6 O1B         1.0135   -1.0300   -5.9728 O.co2     1 ACP        -0.8554
      7 O2B         3.4514   -0.2568   -5.2905 O.co2     1 ACP        -0.8554
      8 C3B         2.1239   -2.0115   -3.7001 C.3       1 ACP        -0.6550
      9 PA          0.8118    1.9901   -4.2726 P.3       1 ACP         1.5921
     10 O1A        -0.4259    1.8446   -5.1315 O.co2     1 ACP        -0.8561
     11 O2A         1.9622    2.8653   -4.7205 O.co2     1 ACP        -0.8561
     12 O3A         1.3938    0.4993   -3.9465 O.3       1 ACP        -0.8166
     13 O5'         0.3757    2.4482   -2.7643 O.3       1 ACP        -0.5737
     14 C5'        -0.7794    1.8744   -2.1748 C.3       1 ACP         0.2197
     15 C4'        -0.9699    2.4597   -0.7819 C.3       1 ACP         0.0944
     16 O4'        -2.1475    1.8640   -0.2014 O.3       1 ACP        -0.4017
     17 C3'         0.1697    2.1347    0.1695 C.3       1 ACP         0.0859
     18 O3'         0.1809    3.0982    1.2223 O.3       1 ACP        -0.5941
     19 C2'        -0.2543    0.7880    0.7187 C.3       1 ACP         0.0924
     20 O2'         0.3606    0.4944    1.9582 O.3       1 ACP        -0.5928
     21 C1'        -1.7682    0.9516    0.8548 C.3       1 ACP         0.3967
     22 N9         -2.5926   -0.2553    0.7436 N.pl3     1 ACP        -0.6763
     23 C8         -3.5599   -0.4866   -0.1983 C.ar      1 ACP         0.5586
     24 N7         -4.1294   -1.6639   -0.0461 N.2       1 ACP        -0.5795
     25 C5         -3.5041   -2.2191    1.0420 C.ar      1 ACP        -0.2116
     26 C6         -3.6604   -3.4390    1.6925 C.ar      1 ACP         0.7185
     27 N6         -4.6108   -4.3735    1.2468 N.pl3     1 ACP        -0.9442
     28 N1         -2.8820   -3.7179    2.7657 N.ar      1 ACP        -0.8040
     29 C2         -1.9837   -2.7784    3.1481 C.ar      1 ACP         0.6560
     30 N3         -1.7408   -1.5668    2.6022 N.ar      1 ACP        -0.7058
     31 C4         -2.5438   -1.3578    1.5483 C.ar      1 ACP         0.5729
     32 HOG2        3.6074   -3.7157   -0.8708 H         1 ACP         0.4440
     33 HOG3        5.4750   -2.0963   -2.3354 H         1 ACP         0.4440
     34 H3B1        2.3665   -2.9086   -4.2807 H         1 ACP         0.1084
     35 H3B2        1.1038   -2.1422   -3.3214 H         1 ACP         0.1084
     36 H5'1       -1.6462    2.0968   -2.8052 H         1 ACP         0.0281
     37 H5'2       -0.6469    0.7893   -2.1194 H         1 ACP         0.0281
     38 H4'        -1.1469    3.5409   -0.8522 H         1 ACP         0.1082
     39 H3'         1.1601    2.1310   -0.2934 H         1 ACP         0.0650
     40 HO3'        0.3098    3.9616    0.8017 H         1 ACP         0.4300
     41 H2'        -0.0024   -0.0091    0.0062 H         1 ACP         0.0785
     42 HO2'        0.0384   -0.3797    2.2403 H         1 ACP         0.4275
     43 H1'        -2.0584    1.4255    1.8301 H         1 ACP         0.1009
     44 H8         -3.8030    0.2355   -0.9657 H         1 ACP         0.1067
     45 HN61       -5.2130   -4.1372    0.4810 H         1 ACP         0.4213
     46 HN62       -4.7404   -5.2263    1.7576 H         1 ACP         0.4213
     47 H2         -1.3778   -3.0348    4.0107 H         1 ACP         0.0365
@<TRIPOS>BOND
     1    1    2 2
     2    1    3 1
     3    1    4 1
     4    1    8 1
     5    3   32 1
     6    4   33 1
     7    5    6 2
     8    5    7 1
     9    5    8 1
    10    5   12 1
    11    8   34 1
    12    8   35 1
    13    9   10 2
    14    9   11 1
    15    9   12 1
    16    9   13 1
    17   13   14 1
    18   14   15 1
    19   14   36 1
    20   14   37 1
    21   15   16 1
    22   15   17 1
    23   15   38 1
    24   16   21 1
    25   17   18 1
    26   17   19 1
    27   17   39 1
    28   18   40 1
    29   19   20 1
    30   19   21 1
    31   19   41 1
    32   20   42 1
    33   21   22 1
    34   21   43 1
    35   22   23 ar
    36   22   31 ar
    37   23   24 ar
    38   23   44 1
    39   24   25 ar
    40   25   26 ar
    41   25   31 ar
    42   26   27 1
    43   26   28 ar
    44   27   45 1
    45   27   46 1
    46   28   29 ar
    47   29   30 ar
    48   29   47 1
    49   30   31 ar
@<TRIPOS>SUBSTRUCTURE
     1 ACP         1 GROUP 0 A     ****
@<TRIPOS>MOLECULE
[[5-(6-aminopurin-9-yl)-3,4-dihydroxy-tetrahydrofuran-2-yl]methoxy-oxido-phosphoryl]oxy-(phosphonomethyl)phosphinate
   47    49     1     0     0
SMALL
USER_CHARGES

@<TRIPOS>ATOM
      1 PG         -2.9394    7.5317   -0.1657 P.3       1 ACP         1.6478
      2 O1G        -4.1220    7.6919   -1.0729 O.2       1 ACP        -0.9103
      3 O2G        -2.0433    8.8590    0.0474 O.3       1 ACP        -0.7989
      4 O3G        -1.8631    6.4163   -0.6209 O.3       1 ACP        -0.7989
      5 PB         -2.0832    6.7718    2.8375 P.3       1 ACP         1.4947
      6 O1B        -2.8172    6.3715    4.0964 O.co2     1 ACP        -0.8554
      7 O2B        -1.1380    7.9501    2.7944 O.co2     1 ACP        -0.8554
      8 C3B        -3.3558    7.0375    1.5218 C.3       1 ACP        -0.6550
      9 PA          0.0332    4.7082    2.5761 P.3       1 ACP         1.5921
     10 O1A        -0.1148    4.1078    3.9574 O.co2     1 ACP        -0.8561
     11 O2A         1.1835    5.6391    2.2595 O.co2     1 ACP        -0.8561
     12 O3A        -1.3627    5.4617    2.1868 O.3       1 ACP        -0.8166
     13 O5'         0.0182    3.5132    1.4596 O.3       1 ACP        -0.5737
     14 C5'        -0.8811    2.4285    1.6206 C.3       1 ACP         0.2197
     15 C4'        -0.1994    1.3333    2.4288 C.3       1 ACP         0.0944
     16 O4'        -1.1285    0.2356    2.5840 O.3       1 ACP        -0.4017
     17 C3'         1.0324    0.7610    1.7344 C.3       1 ACP         0.0859
     18 O3'         1.9175    0.2377    2.7247 O.3       1 ACP        -0.5941
     19 C2'         0.4468   -0.3802    0.9263 C.3       1 ACP         0.0924
     20 O2'         1.3993   -1.3703    0.5961 O.3       1 ACP        -0.5928
     21 C1'        -0.6159   -0.9100    1.8769 C.3       1 ACP         0.3967
     22 N9         -1.7127   -1.6108    1.2130 N.pl3     1 ACP        -0.6763
     23 C8         -2.8641   -1.0399    0.7392 C.ar      1 ACP         0.5586
     24 N7         -3.6659   -1.9257    0.1858 N.2       1 ACP        -0.5795
     25 C5         -3.0053   -3.1223    0.3069 C.ar      1 ACP        -0.2116
     26 C6         -3.3321   -4.4178   -0.0813 C.ar      1 ACP         0.7185
     27 N6         -4.5476   -4.6866   -0.7335 N.pl3     1 ACP        -0.9442
     28 N1         -2.4608   -5.4225    0.1773 N.ar      1 ACP        -0.8040
     29 C2         -1.3053   -5.1020    0.8081 C.ar      1 ACP         0.6560
     30 N3         -0.8788   -3.8921    1.2315 N.ar      1 ACP        -0.7058
     31 C4         -1.7870   -2.9477    0.9438 C.ar      1 ACP         0.5729
     32 HOG2       -1.6206    9.2772   -0.7327 H         1 ACP         0.4440
     33 HOG3       -1.4170    6.5128   -1.4890 H         1 ACP         0.4440
     34 H3B1       -4.0447    7.7877    1.9260 H         1 ACP         0.1084
     35 H3B2       -3.9137    6.0968    1.4511 H         1 ACP         0.1084
     36 H5'1       -1.7769    2.7852    2.1386 H         1 ACP         0.0281
     37 H5'2       -1.1652    2.0544    0.6320 H         1 ACP         0.0281
     38 H4'         0.0403    1.7078    3.4343 H         1 ACP         0.1082
     39 H3'         1.5906    1.4859    1.1353 H         1 ACP         0.0650
     40 HO3'        2.6839   -0.1150    2.2479 H         1 ACP         0.4300
     41 H2'        -0.0017    0.0018    0.0005 H         1 ACP         0.0785
     42 HO2'        0.9369   -2.0558    0.0825 H         1 ACP         0.4275
     43 H1'        -0.1998   -1.6319    2.6178 H         1 ACP         0.1009
     44 H8         -3.0609    0.0200    0.8250 H         1 ACP         0.1067
     45 HN61       -4.7432   -5.6184   -1.0469 H         1 ACP         0.4213
     46 HN62       -5.1624   -3.9284   -0.9616 H         1 ACP         0.4213
     47 H2         -0.6318   -5.9307    0.9993 H         1 ACP         0.0365
@<TRIPOS>BOND
     1    1    2 2
     2    1    3 1
     3    1    4 1
     4    1    8 1
     5    3   32 1
     6    4   33 1
     7    5    6 2
     8    5    7 1
     9    5    8 1
    10    5   12 1
    11    8   34 1
    12    8   35 1
    13    9   10 2
    14    9   11 1
    15    9   12 1
    16    9   13 1
    17   13   14 1
    18   14   15 1
    19   14   36 1
    20   14   37 1
    21   15   16 1
    22   15   17 1
    23   15   38 1
    24   16   21 1
    25   17   18 1
    26   17   19 1
    27   17   39 1
    28   18   40 1
    29   19   20 1
    30   19   21 1
    31   19   41 1
    32   20   42 1
    33   21   22 1
    34   21   43 1
    35   22   23 ar
    36   22   31 ar
    37   23   24 ar
    38   23   44 1
    39   24   25 ar
    40   25   26 ar
    41   25   31 ar
    42   26   27 1
    43   26   28 ar
    44   27   45 1
    45   27   46 1
    46   28   29 ar
    47   29   30 ar
    48   29   47 1
    49   30   31 ar
@<TRIPOS>SUBSTRUCTURE
     1 ACP         1 GROUP 0 A     ****
@<TRIPOS>MOLECULE
[[5-(6-aminopurin-9-yl)-3,4-dihydroxy-tetrahydrofuran-2-yl]methoxy-oxido-phosphoryl]oxy-(phosphonomethyl)phosphinate
   47    49     1     0     0
SMALL
USER_CHARGES

@<TRIPOS>ATOM
      1 PG         -0.3407    4.8679   -3.5974 P.3       1 ACP         1.6478
      2 O1G         0.4233    6.1014   -3.9744 O.2       1 ACP        -0.9103
      3 O2G         0.4386    3.8386   -2.6260 O.3       1 ACP        -0.7989
      4 O3G        -0.8124    3.9403   -4.8330 O.3       1 ACP        -0.7989
      5 PB         -1.9476    6.0763   -1.0898 P.3       1 ACP         1.4947
      6 O1B        -3.3990    6.1455   -0.6748 O.co2     1 ACP        -0.8554
      7 O2B        -1.0850    7.3105   -1.2178 O.co2     1 ACP        -0.8554
      8 C3B        -1.8825    5.1878   -2.7107 C.3       1 ACP        -0.6550
      9 PA         -0.5788    5.0300    1.3263 P.3       1 ACP         1.5921
     10 O1A        -1.7338    5.2023    2.2890 O.co2     1 ACP        -0.8561
     11 O2A         0.5830    5.9997    1.3349 O.co2     1 ACP        -0.8561
     12 O3A        -1.1769    4.9545   -0.1916 O.3       1 ACP        -0.8166
     13 O5'         0.0182    3.5132    1.4596 O.3       1 ACP        -0.5737
     14 C5'        -0.8811    2.4285    1.6206 C.3       1 ACP         0.2197
     15 C4'        -0.1994    1.3333    2.4288 C.3       1 ACP         0.0944
     16 O4'        -1.1285    0.2356    2.5840 O.3       1 ACP        -0.4017
     17 C3'         1.0324    0.7610    1.7344 C.3       1 ACP         0.0859
     18 O3'         1.9175    0.2377    2.7247 O.3       1 ACP        -0.5941
     19 C2'         0.4468   -0.3802    0.9263 C.3       1 ACP         0.0924
     20 O2'         1.3993   -1.3703    0.5961 O.3       1 ACP        -0.5928
     21 C1'        -0.6159   -0.9100    1.8769 C.3       1 ACP         0.3967
     22 N9         -1.7127   -1.6108    1.2130 N.pl3     1 ACP        -0.6763
     23 C8         -1.7712   -2.9546    0.9544 C.ar      1 ACP         0.5586
     24 N7         -2.8883   -3.2948    0.3462 N.2       1 ACP        -0.5795
     25 C5         -3.5834   -2.1202    0.2043 C.ar      1 ACP        -0.2116
     26 C6         -4.8225   -1.8251   -0.3554 C.ar      1 ACP         0.7185
     27 N6         -5.6154   -2.8394   -0.9189 N.pl3     1 ACP        -0.9442
     28 N1         -5.2589   -0.5425   -0.3507 N.ar      1 ACP        -0.8040
     29 C2         -4.4510    0.3913    0.2069 C.ar      1 ACP         0.6560
     30 N3         -3.2368    0.2296    0.7767 N.ar      1 ACP        -0.7058
     31 C4         -2.8684   -1.0596    0.7376 C.ar      1 ACP         0.5729
     32 HOG2        1.2835    3.4449   -2.9310 H         1 ACP         0.4440
     33 HOG3       -0.1321    3.5602   -5.4286 H         1 ACP         0.4440
     34 H3B1       -2.5395    5.7520   -3.3821 H         1 ACP         0.1084
     35 H3B2       -2.3598    4.2163   -2.5386 H         1 ACP         0.1084
     36 H5'1       -1.7769    2.7852    2.1386 H         1 ACP         0.0281
     37 H5'2       -1.1652    2.0544    0.6320 H         1 ACP         0.0281
     38 H4'         0.0403    1.7078    3.4343 H         1 ACP         0.1082
     39 H3'         1.5906    1.4859    1.1353 H         1 ACP         0.0650
     40 HO3'        2.1521    0.9800    3.3017 H         1 ACP         0.4300
     41 H2'        -0.0017    0.0018    0.0005 H         1 ACP         0.0785
     42 HO2'        0.9369   -2.0558    0.0825 H         1 ACP         0.4275
     43 H1'        -0.1998   -1.6319    2.6178 H         1 ACP         0.1009
     44 H8         -0.9745   -3.6312    1.2318 H         1 ACP         0.1067
     45 HN61       -5.2619   -3.7766   -0.9586 H         1 ACP         0.4213
     46 HN62       -6.4834   -2.5990   -1.3590 H         1 ACP         0.4213
     47 H2         -4.8317    1.4071    0.1930 H         1 ACP         0.0365
@<TRIPOS>BOND
     1    1    2 2
     2    1    3 1
     3    1    4 1
     4    1    8 1
     5    3   32 1
     6    4   33 1
     7    5    6 2
     8    5    7 1
     9    5    8 1
    10    5   12 1
    11    8   34 1
    12    8   35 1
    13    9   10 2
    14    9   11 1
    15    9   12 1
    16    9   13 1
    17   13   14 1
    18   14   15 1
    19   14   36 1
    20   14   37 1
    21   15   16 1
    22   15   17 1
    23   15   38 1
    24   16   21 1
    25   17   18 1
    26   17   19 1
    27   17   39 1
    28   18   40 1
    29   19   20 1
    30   19   21 1
    31   19   41 1
    32   20   42 1
    33   21   22 1
    34   21   43 1
    35   22   23 ar
    36   22   31 ar
    37   23   24 ar
    38   23   44 1
    39   24   25 ar
    40   25   26 ar
    41   25   31 ar
    42   26   27 1
    43   26   28 ar
    44   27   45 1
    45   27   46 1
    46   28   29 ar
    47   29   30 ar
    48   29   47 1
    49   30   31 ar
@<TRIPOS>SUBSTRUCTURE
     1 ACP         1 GROUP 0 A     ****
@<TRIPOS>MOLECULE
[[5-(6-aminopurin-9-yl)-3,4-dihydroxy-tetrahydrofuran-2-yl]methoxy-oxido-phosphoryl]oxy-(phosphonomethyl)phosphinate
   47    49     1     0     0
SMALL
USER_CHARGES

@<TRIPOS>ATOM
      1 PG          5.8400    0.1912   -4.1058 P.3       1 ACP         1.6478
      2 O1G         4.7570    0.0907   -3.0742 O.2       1 ACP        -0.9103
      3 O2G         5.3665   -0.0373   -5.6335 O.3       1 ACP        -0.7989
      4 O3G         7.0643   -0.8476   -3.9286 O.3       1 ACP        -0.7989
      5 PB          7.5731    2.5172   -2.7216 P.3       1 ACP         1.4947
      6 O1B         8.1212    3.8555   -3.1597 O.co2     1 ACP        -0.8554
      7 O2B         8.4562    1.4295   -2.1553 O.co2     1 ACP        -0.8554
      8 C3B         6.6674    1.7967   -4.1643 C.3       1 ACP        -0.6550
      9 PA          6.1592    3.5244   -0.3148 P.3       1 ACP         1.5921
     10 O1A         6.4205    4.9975   -0.5432 O.co2     1 ACP        -0.8561
     11 O2A         6.9491    2.7529    0.7199 O.co2     1 ACP        -0.8561
     12 O3A         6.2869    2.7480   -1.7461 O.3       1 ACP        -0.8166
     13 O5'         4.5669    3.2941   -0.0211 O.3       1 ACP        -0.5737
     14 C5'         4.0922    1.9801    0.2227 C.3       1 ACP         0.2197
     15 C4'         2.5944    2.0310    0.4653 C.3       1 ACP         0.0944
     16 O4'         1.9327    2.5740   -0.6889 O.3       1 ACP        -0.4017
     17 C3'         1.9685    0.6634    0.6767 C.3       1 ACP         0.0859
     18 O3'         2.1425    0.1975    1.9977 O.3       1 ACP        -0.5941
     19 C2'         0.5176    0.9128    0.3099 C.3       1 ACP         0.0924
     20 O2'        -0.2103    1.4454    1.4152 O.3       1 ACP        -0.5928
     21 C1'         0.6219    1.9765   -0.7844 C.3       1 ACP         0.3967
     22 N9          0.4237    1.4496   -2.1357 N.pl3     1 ACP        -0.6763
     23 C8          1.4026    0.9717   -2.9660 C.ar      1 ACP         0.5586
     24 N7          0.9183    0.5619   -4.1197 N.2       1 ACP        -0.5795
     25 C5         -0.4330    0.7845   -4.0331 C.ar      1 ACP        -0.2116
     26 C6         -1.4794    0.5615   -4.9225 C.ar      1 ACP         0.7185
     27 N6         -1.2378    0.0044   -6.1899 N.pl3     1 ACP        -0.9442
     28 N1         -2.7406    0.8885   -4.5512 N.ar      1 ACP        -0.8040
     29 C2         -2.9113    1.4216   -3.3172 C.ar      1 ACP         0.6560
     30 N3         -1.9824    1.6843   -2.3721 N.ar      1 ACP        -0.7058
     31 C4         -0.7613    1.3370   -2.8054 C.ar      1 ACP         0.5729
     32 HOG2        4.9565   -0.8934   -5.8808 H         1 ACP         0.4440
     33 HOG3        6.8778   -1.8102   -3.9512 H         1 ACP         0.4440
     34 H3B1        7.3957    1.7641   -4.9824 H         1 ACP         0.1084
     35 H3B2        5.9088    2.5375   -4.4415 H         1 ACP         0.1084
     36 H5'1        4.3181    1.3551   -0.6470 H         1 ACP         0.0281
     37 H5'2        4.6085    1.5740    1.0982 H         1 ACP         0.0281
     38 H4'         2.3751    2.7029    1.3156 H         1 ACP         0.1082
     39 H3'         2.4336   -0.1217   -0.0015 H         1 ACP         0.0650
     40 HO3'        1.7160   -0.6716    2.0397 H         1 ACP         0.4300
     41 H2'         0.0316    0.0155   -0.0339 H         1 ACP         0.0785
     42 HO2'       -0.1608    0.7921    2.1351 H         1 ACP         0.4275
     43 H1'        -0.1474    2.7798   -0.6651 H         1 ACP         0.1009
     44 H8          2.4442    0.9470   -2.6763 H         1 ACP         0.1067
     45 HN61       -0.2955   -0.1901   -6.4713 H         1 ACP         0.4213
     46 HN62       -1.9987   -0.1045   -6.8334 H         1 ACP         0.4213
     47 H2         -3.9335    1.6716   -3.0534 H         1 ACP         0.0365
@<TRIPOS>BOND
     1    1    2 2
     2    1    3 1
     3    1    4 1
     4    1    8 1
     5    3   32 1
     6    4   33 1
     7    5    6 2
     8    5    7 1
     9    5    8 1
    10    5   12 1
    11    8   34 1
    12    8   35 1
    13    9   10 2
    14    9   11 1
    15    9   12 1
    16    9   13 1
    17   13   14 1
    18   14   15 1
    19   14   36 1
    20   14   37 1
    21   15   16 1
    22   15   17 1
    23   15   38 1
    24   16   21 1
    25   17   18 1
    26   17   19 1
    27   17   39 1
    28   18   40 1
    29   19   20 1
    30   19   21 1
    31   19   41 1
    32   20   42 1
    33   21   22 1
    34   21   43 1
    35   22   23 ar
    36   22   31 ar
    37   23   24 ar
    38   23   44 1
    39   24   25 ar
    40   25   26 ar
    41   25   31 ar
    42   26   27 1
    43   26   28 ar
    44   27   45 1
    45   27   46 1
    46   28   29 ar
    47   29   30 ar
    48   29   47 1
    49   30   31 ar
@<TRIPOS>SUBSTRUCTURE
     1 ACP         1 GROUP 0 A     ****
@<TRIPOS>MOLECULE
[[5-(6-aminopurin-9-yl)-3,4-dihydroxy-tetrahydrofuran-2-yl]methoxy-oxido-phosphoryl]oxy-(phosphonomethyl)phosphinate
   47    49     1     0     0
SMALL
USER_CHARGES

@<TRIPOS>ATOM
      1 PG          2.2608    5.8838    4.6262 P.3       1 ACP         1.6478
      2 O1G         3.7376    5.6642    4.7606 O.2       1 ACP        -0.9103
      3 O2G         1.6145    6.9220    5.6819 O.3       1 ACP        -0.7989
      4 O3G         1.3464    4.5616    4.7859 O.3       1 ACP        -0.7989
      5 PB         -0.0154    6.9094    2.6020 P.3       1 ACP         1.4947
      6 O1B        -0.0360    7.4460    1.1895 O.co2     1 ACP        -0.8554
      7 O2B        -0.6105    7.6710    3.7636 O.co2     1 ACP        -0.8554
      8 C3B         1.7484    6.5477    3.0255 C.3       1 ACP        -0.6550
      9 PA         -2.0037    4.7529    2.1525 P.3       1 ACP         1.5921
     10 O1A        -2.1554    4.9422    0.6587 O.co2     1 ACP        -0.8561
     11 O2A        -3.0660    5.2571    3.1051 O.co2     1 ACP        -0.8561
     12 O3A        -0.5638    5.3737    2.6095 O.3       1 ACP        -0.8166
     13 O5'        -1.7337    3.1724    2.4754 O.3       1 ACP        -0.5737
     14 C5'        -0.8811    2.4285    1.6206 C.3       1 ACP         0.2197
     15 C4'        -0.1994    1.3333    2.4288 C.3       1 ACP         0.0944
     16 O4'        -1.1285    0.2356    2.5840 O.3       1 ACP        -0.4017
     17 C3'         1.0324    0.7610    1.7344 C.3       1 ACP         0.0859
     18 O3'         1.9175    0.2377    2.7247 O.3       1 ACP        -0.5941
     19 C2'         0.4468   -0.3802    0.9263 C.3       1 ACP         0.0924
     20 O2'         1.3993   -1.3703    0.5961 O.3       1 ACP        -0.5928
     21 C1'        -0.6159   -0.9100    1.8769 C.3       1 ACP         0.3967
     22 N9         -1.7127   -1.6108    1.2130 N.pl3     1 ACP        -0.6763
     23 C8         -2.0877   -2.9101    1.4304 C.ar      1 ACP         0.5586
     24 N7         -3.1152   -3.2613    0.6857 N.2       1 ACP        -0.5795
     25 C5         -3.4186   -2.1409   -0.0462 C.ar      1 ACP        -0.2116
     26 C6         -4.3953   -1.8809   -1.0023 C.ar      1 ACP         0.7185
     27 N6         -5.3118   -2.8767   -1.3812 N.pl3     1 ACP        -0.9442
     28 N1         -4.4538   -0.6507   -1.5667 N.ar      1 ACP        -0.8040
     29 C2         -3.5442    0.2679   -1.1609 C.ar      1 ACP         0.6560
     30 N3         -2.5561    0.1361   -0.2491 N.ar      1 ACP        -0.7058
     31 C4         -2.5568   -1.1019    0.2674 C.ar      1 ACP         0.5729
     32 HOG2        1.6847    6.7295    6.6411 H         1 ACP         0.4440
     33 HOG3        1.3815    4.0584    5.6271 H         1 ACP         0.4440
     34 H3B1        2.2873    7.4891    2.8698 H         1 ACP         0.1084
     35 H3B2        2.1020    5.8470    2.2606 H         1 ACP         0.1084
     36 H5'1       -1.4802    1.9929    0.8148 H         1 ACP         0.0281
     37 H5'2       -0.1370    3.1043    1.1873 H         1 ACP         0.0281
     38 H4'         0.0403    1.7078    3.4343 H         1 ACP         0.1082
     39 H3'         1.5906    1.4859    1.1353 H         1 ACP         0.0650
     40 HO3'        2.6839   -0.1150    2.2479 H         1 ACP         0.4300
     41 H2'        -0.0017    0.0018    0.0005 H         1 ACP         0.0785
     42 HO2'        0.9369   -2.0558    0.0825 H         1 ACP         0.4275
     43 H1'        -0.1998   -1.6319    2.6178 H         1 ACP         0.1009
     44 H8         -1.5778   -3.5473    2.1399 H         1 ACP         0.1067
     45 HN61       -5.2294   -3.7965   -0.9914 H         1 ACP         0.4213
     46 HN62       -5.9774   -2.6837   -2.1055 H         1 ACP         0.4213
     47 H2         -3.6201    1.2414   -1.6336 H         1 ACP         0.0365
@<TRIPOS>BOND
     1    1    2 2
     2    1    3 1
     3    1    4 1
     4    1    8 1
     5    3   32 1
     6    4   33 1
     7    5    6 2
     8    5    7 1
     9    5    8 1
    10    5   12 1
    11    8   34 1
    12    8   35 1
    13    9   10 2
    14    9   11 1
    15    9   12 1
    16    9   13 1
    17   13   14 1
    18   14   15 1
    19   14   36 1
    20   14   37 1
    21   15   16 1
    22   15   17 1
    23   15   38 1
    24   16   21 1
    25   17   18 1
    26   17   19 1
    27   17   39 1
    28   18   40 1
    29   19   20 1
    30   19   21 1
    31   19   41 1
    32   20   42 1
    33   21   22 1
    34   21   43 1
    35   22   23 ar
    36   22   31 ar
    37   23   24 ar
    38   23   44 1
    39   24   25 ar
    40   25   26 ar
    41   25   31 ar
    42   26   27 1
    43   26   28 ar
    44   27   45 1
    45   27   46 1
    46   28   29 ar
    47   29   30 ar
    48   29   47 1
    49   30   31 ar
@<TRIPOS>SUBSTRUCTURE
     1 ACP         1 GROUP 0 A     ****
@<TRIPOS>MOLECULE
[[5-(6-aminopurin-9-yl)-3,4-dihydroxy-tetrahydrofuran-2-yl]methoxy-oxido-phosphoryl]oxy-(phosphonomethyl)phosphinate
   47    49     1     0     0
SMALL
USER_CHARGES

@<TRIPOS>ATOM
      1 PG          0.4464    8.1806    0.1902 P.3       1 ACP         1.6478
      2 O1G         1.3055    7.9371    1.3944 O.2       1 ACP        -0.9103
      3 O2G         1.2431    8.5228   -1.1730 O.3       1 ACP        -0.7989
      4 O3G        -0.6104    9.3947    0.3271 O.3       1 ACP        -0.7989
      5 PB         -1.8696    6.0505    0.8451 P.3       1 ACP         1.4947
      6 O1B        -2.5230    4.9093    0.1005 O.co2     1 ACP        -0.8554
      7 O2B        -2.6657    7.1959    1.4263 O.co2     1 ACP        -0.8554
      8 C3B        -0.5944    6.7797   -0.2787 C.3       1 ACP        -0.6550
      9 PA         -1.1366    4.4807    3.2544 P.3       1 ACP         1.5921
     10 O1A        -2.2266    5.1034    4.0998 O.co2     1 ACP        -0.8561
     11 O2A         0.1933    4.1013    3.8686 O.co2     1 ACP        -0.8561
     12 O3A        -0.8547    5.4545    1.9738 O.3       1 ACP        -0.8166
     13 O5'        -1.7337    3.1724    2.4754 O.3       1 ACP        -0.5737
     14 C5'        -0.8811    2.4285    1.6206 C.3       1 ACP         0.2197
     15 C4'        -0.1994    1.3333    2.4288 C.3       1 ACP         0.0944
     16 O4'        -1.1285    0.2356    2.5840 O.3       1 ACP        -0.4017
     17 C3'         1.0324    0.7610    1.7344 C.3       1 ACP         0.0859
     18 O3'         1.9175    0.2377    2.7247 O.3       1 ACP        -0.5941
     19 C2'         0.4468   -0.3802    0.9263 C.3       1 ACP         0.0924
     20 O2'         1.3993   -1.3703    0.5961 O.3       1 ACP        -0.5928
     21 C1'        -0.6159   -0.9100    1.8769 C.3       1 ACP         0.3967
     22 N9         -1.7127   -1.6108    1.2130 N.pl3     1 ACP        -0.6763
     23 C8         -2.8641   -1.0399    0.7392 C.ar      1 ACP         0.5586
     24 N7         -3.6659   -1.9257    0.1858 N.2       1 ACP        -0.5795
     25 C5         -3.0053   -3.1223    0.3069 C.ar      1 ACP        -0.2116
     26 C6         -3.3321   -4.4178   -0.0813 C.ar      1 ACP         0.7185
     27 N6         -4.5476   -4.6866   -0.7335 N.pl3     1 ACP        -0.9442
     28 N1         -2.4608   -5.4225    0.1773 N.ar      1 ACP        -0.8040
     29 C2         -1.3053   -5.1020    0.8081 C.ar      1 ACP         0.6560
     30 N3         -0.8788   -3.8921    1.2315 N.ar      1 ACP        -0.7058
     31 C4         -1.7870   -2.9477    0.9438 C.ar      1 ACP         0.5729
     32 HOG2        1.8230    9.3135   -1.1986 H         1 ACP         0.4440
     33 HOG3       -0.2745   10.2999    0.4992 H         1 ACP         0.4440
     34 H3B1       -1.1318    7.0578   -1.1923 H         1 ACP         0.1084
     35 H3B2        0.0784    5.9556   -0.5422 H         1 ACP         0.1084
     36 H5'1       -1.4802    1.9929    0.8148 H         1 ACP         0.0281
     37 H5'2       -0.1370    3.1043    1.1873 H         1 ACP         0.0281
     38 H4'         0.0403    1.7078    3.4343 H         1 ACP         0.1082
     39 H3'         1.5906    1.4859    1.1353 H         1 ACP         0.0650
     40 HO3'        2.6839   -0.1150    2.2479 H         1 ACP         0.4300
     41 H2'        -0.0017    0.0018    0.0005 H         1 ACP         0.0785
     42 HO2'        2.0953   -0.9375    0.0709 H         1 ACP         0.4275
     43 H1'        -0.1998   -1.6319    2.6178 H         1 ACP         0.1009
     44 H8         -3.0609    0.0200    0.8250 H         1 ACP         0.1067
     45 HN61       -5.2046   -3.9433   -0.8775 H         1 ACP         0.4213
     46 HN62       -4.7849   -5.6332   -0.9625 H         1 ACP         0.4213
     47 H2         -0.6318   -5.9307    0.9993 H         1 ACP         0.0365
@<TRIPOS>BOND
     1    1    2 2
     2    1    3 1
     3    1    4 1
     4    1    8 1
     5    3   32 1
     6    4   33 1
     7    5    6 2
     8    5    7 1
     9    5    8 1
    10    5   12 1
    11    8   34 1
    12    8   35 1
    13    9   10 2
    14    9   11 1
    15    9   12 1
    16    9   13 1
    17   13   14 1
    18   14   15 1
    19   14   36 1
    20   14   37 1
    21   15   16 1
    22   15   17 1
    23   15   38 1
    24   16   21 1
    25   17   18 1
    26   17   19 1
    27   17   39 1
    28   18   40 1
    29   19   20 1
    30   19   21 1
    31   19   41 1
    32   20   42 1
    33   21   22 1
    34   21   43 1
    35   22   23 ar
    36   22   31 ar
    37   23   24 ar
    38   23   44 1
    39   24   25 ar
    40   25   26 ar
    41   25   31 ar
    42   26   27 1
    43   26   28 ar
    44   27   45 1
    45   27   46 1
    46   28   29 ar
    47   29   30 ar
    48   29   47 1
    49   30   31 ar
@<TRIPOS>SUBSTRUCTURE
     1 ACP         1 GROUP 0 A     ****
@<TRIPOS>MOLECULE
[[5-(6-aminopurin-9-yl)-3,4-dihydroxy-tetrahydrofuran-2-yl]methoxy-oxido-phosphoryl]oxy-(phosphonomethyl)phosphinate
   47    49     1     0     0
SMALL
USER_CHARGES

@<TRIPOS>ATOM
      1 PG         -0.4424    8.4805    1.3463 P.3       1 ACP         1.6478
      2 O1G        -1.4932    9.5104    1.6336 O.2       1 ACP        -0.9103
      3 O2G         0.2720    7.8371    2.6447 O.3       1 ACP        -0.7989
      4 O3G         0.7973    8.9886    0.4438 O.3       1 ACP        -0.7989
      5 PB         -2.3703    5.9214    1.0926 P.3       1 ACP         1.4947
      6 O1B        -2.5903    4.8387    0.0616 O.co2     1 ACP        -0.8554
      7 O2B        -3.4929    6.8021    1.5904 O.co2     1 ACP        -0.8554
      8 C3B        -1.0427    7.0342    0.4444 C.3       1 ACP        -0.6550
      9 PA         -1.9154    4.0917    3.3841 P.3       1 ACP         1.5921
     10 O1A        -3.2739    4.3706    3.9902 O.co2     1 ACP        -0.8561
     11 O2A        -0.7157    3.8308    4.2687 O.co2     1 ACP        -0.8561
     12 O3A        -1.5461    5.3085    2.3591 O.3       1 ACP        -0.8166
     13 O5'        -2.0402    2.8619    2.3132 O.3       1 ACP        -0.5737
     14 C5'        -0.8811    2.4285    1.6206 C.3       1 ACP         0.2197
     15 C4'        -0.1994    1.3333    2.4288 C.3       1 ACP         0.0944
     16 O4'        -1.1285    0.2356    2.5840 O.3       1 ACP        -0.4017
     17 C3'         1.0324    0.7610    1.7344 C.3       1 ACP         0.0859
     18 O3'         1.9175    0.2377    2.7247 O.3       1 ACP        -0.5941
     19 C2'         0.4468   -0.3802    0.9263 C.3       1 ACP         0.0924
     20 O2'         1.3993   -1.3703    0.5961 O.3       1 ACP        -0.5928
     21 C1'        -0.6159   -0.9100    1.8769 C.3       1 ACP         0.3967
     22 N9         -1.7127   -1.6108    1.2130 N.pl3     1 ACP        -0.6763
     23 C8         -1.7712   -2.9546    0.9544 C.ar      1 ACP         0.5586
     24 N7         -2.8883   -3.2948    0.3462 N.2       1 ACP        -0.5795
     25 C5         -3.5834   -2.1202    0.2043 C.ar      1 ACP        -0.2116
     26 C6         -4.8225   -1.8251   -0.3554 C.ar      1 ACP         0.7185
     27 N6         -5.6154   -2.8394   -0.9189 N.pl3     1 ACP        -0.9442
     28 N1         -5.2589   -0.5425   -0.3507 N.ar      1 ACP        -0.8040
     29 C2         -4.4510    0.3913    0.2069 C.ar      1 ACP         0.6560
     30 N3         -3.2368    0.2296    0.7767 N.ar      1 ACP        -0.7058
     31 C4         -2.8684   -1.0596    0.7376 C.ar      1 ACP         0.5729
     32 HOG2        0.7565    8.4263    3.2613 H         1 ACP         0.4440
     33 HOG3        1.3507    9.7296    0.7705 H         1 ACP         0.4440
     34 H3B1       -1.3985    7.3781   -0.5334 H         1 ACP         0.1084
     35 H3B2       -0.1757    6.3897    0.2602 H         1 ACP         0.1084
     36 H5'1       -1.1771    2.0504    0.6370 H         1 ACP         0.0281
     37 H5'2       -0.2083    3.2816    1.4878 H         1 ACP         0.0281
     38 H4'         0.0403    1.7078    3.4343 H         1 ACP         0.1082
     39 H3'         1.5906    1.4859    1.1353 H         1 ACP         0.0650
     40 HO3'        2.6839   -0.1150    2.2479 H         1 ACP         0.4300
     41 H2'        -0.0017    0.0018    0.0005 H         1 ACP         0.0785
     42 HO2'        2.0953   -0.9375    0.0709 H         1 ACP         0.4275
     43 H1'        -0.1998   -1.6319    2.6178 H         1 ACP         0.1009
     44 H8         -0.9745   -3.6312    1.2318 H         1 ACP         0.1067
     45 HN61       -5.2619   -3.7766   -0.9586 H         1 ACP         0.4213
     46 HN62       -6.4834   -2.5990   -1.3590 H         1 ACP         0.4213
     47 H2         -4.8317    1.4071    0.1930 H         1 ACP         0.0365
@<TRIPOS>BOND
     1    1    2 2
     2    1    3 1
     3    1    4 1
     4    1    8 1
     5    3   32 1
     6    4   33 1
     7    5    6 2
     8    5    7 1
     9    5    8 1
    10    5   12 1
    11    8   34 1
    12    8   35 1
    13    9   10 2
    14    9   11 1
    15    9   12 1
    16    9   13 1
    17   13   14 1
    18   14   15 1
    19   14   36 1
    20   14   37 1
    21   15   16 1
    22   15   17 1
    23   15   38 1
    24   16   21 1
    25   17   18 1
    26   17   19 1
    27   17   39 1
    28   18   40 1
    29   19   20 1
    30   19   21 1
    31   19   41 1
    32   20   42 1
    33   21   22 1
    34   21   43 1
    35   22   23 ar
    36   22   31 ar
    37   23   24 ar
    38   23   44 1
    39   24   25 ar
    40   25   26 ar
    41   25   31 ar
    42   26   27 1
    43   26   28 ar
    44   27   45 1
    45   27   46 1
    46   28   29 ar
    47   29   30 ar
    48   29   47 1
    49   30   31 ar
@<TRIPOS>SUBSTRUCTURE
     1 ACP         1 GROUP 0 A     ****
@<TRIPOS>MOLECULE
[[5-(6-aminopurin-9-yl)-3,4-dihydroxy-tetrahydrofuran-2-yl]methoxy-oxido-phosphoryl]oxy-(phosphonomethyl)phosphinate
   47    49     1     0     0
SMALL
USER_CHARGES

@<TRIPOS>ATOM
      1 PG         -0.1669    3.1709   -3.5920 P.3       1 ACP         1.6478
      2 O1G         0.3903    1.7829   -3.4899 O.2       1 ACP        -0.9103
      3 O2G        -1.6154    3.3891   -2.9104 O.3       1 ACP        -0.7989
      4 O3G        -0.3670    3.7283   -5.0950 O.3       1 ACP        -0.7989
      5 PB          1.2784    4.4327   -1.0135 P.3       1 ACP         1.4947
      6 O1B         2.1376    5.6473   -0.7490 O.co2     1 ACP        -0.8554
      7 O2B         1.7300    3.0332   -0.6654 O.co2     1 ACP        -0.8554
      8 C3B         0.8533    4.4431   -2.8135 C.3       1 ACP        -0.6550
      9 PA         -0.7382    5.0055    1.0868 P.3       1 ACP         1.5921
     10 O1A        -2.2516    5.0177    1.0865 O.co2     1 ACP        -0.8561
     11 O2A         0.0419    6.1870    1.6208 O.co2     1 ACP        -0.8561
     12 O3A        -0.2227    4.6896   -0.4304 O.3       1 ACP        -0.8166
     13 O5'        -0.2059    3.6558    1.8419 O.3       1 ACP        -0.5737
     14 C5'        -0.8811    2.4285    1.6206 C.3       1 ACP         0.2197
     15 C4'        -0.1994    1.3333    2.4288 C.3       1 ACP         0.0944
     16 O4'        -1.1285    0.2356    2.5840 O.3       1 ACP        -0.4017
     17 C3'         1.0324    0.7610    1.7344 C.3       1 ACP         0.0859
     18 O3'         1.9175    0.2377    2.7247 O.3       1 ACP        -0.5941
     19 C2'         0.4468   -0.3802    0.9263 C.3       1 ACP         0.0924
     20 O2'         1.3993   -1.3703    0.5961 O.3       1 ACP        -0.5928
     21 C1'        -0.6159   -0.9100    1.8769 C.3       1 ACP         0.3967
     22 N9         -1.7127   -1.6108    1.2130 N.pl3     1 ACP        -0.6763
     23 C8         -2.5476   -1.0844    0.2632 C.ar      1 ACP         0.5586
     24 N7         -3.4391   -1.9591   -0.1536 N.2       1 ACP        -0.5795
     25 C5         -3.1701   -3.1016    0.5574 C.ar      1 ACP        -0.2116
     26 C6         -3.7593   -4.3620    0.5656 C.ar      1 ACP         0.7185
     27 N6         -4.8512   -4.6493   -0.2712 N.pl3     1 ACP        -0.9442
     28 N1         -3.2659   -5.3144    1.3932 N.ar      1 ACP        -0.8040
     29 C2         -2.2122   -4.9785    2.1759 C.ar      1 ACP         0.6560
     30 N3         -1.5595   -3.7985    2.2572 N.ar      1 ACP        -0.7058
     31 C4         -2.0986   -2.9054    1.4140 C.ar      1 ACP         0.5729
     32 HOG2       -2.3767    2.8617   -3.2332 H         1 ACP         0.4440
     33 HOG3       -0.9638    3.2453   -5.7054 H         1 ACP         0.4440
     34 H3B1        1.8128    4.4673   -3.3422 H         1 ACP         0.1084
     35 H3B2        0.3619    5.4050   -2.9992 H         1 ACP         0.1084
     36 H5'1       -1.9255    2.5383    1.9294 H         1 ACP         0.0281
     37 H5'2       -0.8472    2.1934    0.5521 H         1 ACP         0.0281
     38 H4'         0.0403    1.7078    3.4343 H         1 ACP         0.1082
     39 H3'         1.5906    1.4859    1.1353 H         1 ACP         0.0650
     40 HO3'        2.6839   -0.1150    2.2479 H         1 ACP         0.4300
     41 H2'        -0.0017    0.0018    0.0005 H         1 ACP         0.0785
     42 HO2'        2.0953   -0.9375    0.0709 H         1 ACP         0.4275
     43 H1'        -0.1998   -1.6319    2.6178 H         1 ACP         0.1009
     44 H8         -2.4576   -0.0639   -0.0831 H         1 ACP         0.1067
     45 HN61       -5.2371   -3.9234   -0.8448 H         1 ACP         0.4213
     46 HN62       -5.2909   -5.5485   -0.2160 H         1 ACP         0.4213
     47 H2         -1.8433   -5.7650    2.8259 H         1 ACP         0.0365
@<TRIPOS>BOND
     1    1    2 2
     2    1    3 1
     3    1    4 1
     4    1    8 1
     5    3   32 1
     6    4   33 1
     7    5    6 2
     8    5    7 1
     9    5    8 1
    10    5   12 1
    11    8   34 1
    12    8   35 1
    13    9   10 2
    14    9   11 1
    15    9   12 1
    16    9   13 1
    17   13   14 1
    18   14   15 1
    19   14   36 1
    20   14   37 1
    21   15   16 1
    22   15   17 1
    23   15   38 1
    24   16   21 1
    25   17   18 1
    26   17   19 1
    27   17   39 1
    28   18   40 1
    29   19   20 1
    30   19   21 1
    31   19   41 1
    32   20   42 1
    33   21   22 1
    34   21   43 1
    35   22   23 ar
    36   22   31 ar
    37   23   24 ar
    38   23   44 1
    39   24   25 ar
    40   25   26 ar
    41   25   31 ar
    42   26   27 1
    43   26   28 ar
    44   27   45 1
    45   27   46 1
    46   28   29 ar
    47   29   30 ar
    48   29   47 1
    49   30   31 ar
@<TRIPOS>SUBSTRUCTURE
     1 ACP         1 GROUP 0 A     ****
@<TRIPOS>MOLECULE
[[5-(6-aminopurin-9-yl)-3,4-dihydroxy-tetrahydrofuran-2-yl]methoxy-oxido-phosphoryl]oxy-(phosphonomethyl)phosphinate
   47    49     1     0     0
SMALL
USER_CHARGES

@<TRIPOS>ATOM
      1 PG          4.4840    2.8074    5.7004 P.3       1 ACP         1.6478
      2 O1G         4.8145    4.0447    6.4796 O.2       1 ACP        -0.9103
      3 O2G         3.4975    3.0241    4.4395 O.3       1 ACP        -0.7989
      4 O3G         3.7697    1.6283    6.5427 O.3       1 ACP        -0.7989
      5 PB          7.0380    2.8022    3.7494 P.3       1 ACP         1.4947
      6 O1B         8.1044    1.7985    3.3763 O.co2     1 ACP        -0.8554
      7 O2B         7.3733    4.1708    4.2951 O.co2     1 ACP        -0.8554
      8 C3B         5.9157    1.9819    4.9694 C.3       1 ACP        -0.6550
      9 PA          6.1804    3.4026    0.9727 P.3       1 ACP         1.5921
     10 O1A         7.0439    2.3709    0.2795 O.co2     1 ACP        -0.8561
     11 O2A         6.5646    4.8662    0.9557 O.co2     1 ACP        -0.8561
     12 O3A         5.9695    2.9423    2.5255 O.3       1 ACP        -0.8166
     13 O5'         4.6404    3.2702    0.4379 O.3       1 ACP        -0.5737
     14 C5'         4.0922    1.9801    0.2227 C.3       1 ACP         0.2197
     15 C4'         2.5944    2.0310    0.4653 C.3       1 ACP         0.0944
     16 O4'         1.9327    2.5740   -0.6889 O.3       1 ACP        -0.4017
     17 C3'         1.9685    0.6634    0.6767 C.3       1 ACP         0.0859
     18 O3'         2.1425    0.1975    1.9977 O.3       1 ACP        -0.5941
     19 C2'         0.5176    0.9128    0.3099 C.3       1 ACP         0.0924
     20 O2'        -0.2103    1.4454    1.4152 O.3       1 ACP        -0.5928
     21 C1'         0.6219    1.9765   -0.7844 C.3       1 ACP         0.3967
     22 N9          0.4237    1.4496   -2.1357 N.pl3     1 ACP        -0.6763
     23 C8          1.4026    0.9717   -2.9660 C.ar      1 ACP         0.5586
     24 N7          0.9183    0.5619   -4.1197 N.2       1 ACP        -0.5795
     25 C5         -0.4330    0.7845   -4.0331 C.ar      1 ACP        -0.2116
     26 C6         -1.4794    0.5615   -4.9225 C.ar      1 ACP         0.7185
     27 N6         -1.2378    0.0044   -6.1899 N.pl3     1 ACP        -0.9442
     28 N1         -2.7406    0.8885   -4.5512 N.ar      1 ACP        -0.8040
     29 C2         -2.9113    1.4216   -3.3172 C.ar      1 ACP         0.6560
     30 N3         -1.9824    1.6843   -2.3721 N.ar      1 ACP        -0.7058
     31 C4         -0.7613    1.3370   -2.8054 C.ar      1 ACP         0.5729
     32 HOG2        2.6000    3.3878    4.5954 H         1 ACP         0.4440
     33 HOG3        2.9083    1.8084    6.9756 H         1 ACP         0.4440
     34 H3B1        6.5632    1.6534    5.7902 H         1 ACP         0.1084
     35 H3B2        5.5448    1.0776    4.4736 H         1 ACP         0.1084
     36 H5'1        4.3030    1.6732   -0.8066 H         1 ACP         0.0281
     37 H5'2        4.5679    1.2741    0.9106 H         1 ACP         0.0281
     38 H4'         2.3751    2.7029    1.3156 H         1 ACP         0.1082
     39 H3'         2.4336   -0.1217   -0.0015 H         1 ACP         0.0650
     40 HO3'        1.7160   -0.6716    2.0397 H         1 ACP         0.4300
     41 H2'         0.0316    0.0155   -0.0339 H         1 ACP         0.0785
     42 HO2'       -0.1608    0.7921    2.1351 H         1 ACP         0.4275
     43 H1'        -0.1474    2.7798   -0.6651 H         1 ACP         0.1009
     44 H8          2.4442    0.9470   -2.6763 H         1 ACP         0.1067
     45 HN61       -0.2955   -0.1901   -6.4713 H         1 ACP         0.4213
     46 HN62       -1.9987   -0.1045   -6.8334 H         1 ACP         0.4213
     47 H2         -3.9335    1.6716   -3.0534 H         1 ACP         0.0365
@<TRIPOS>BOND
     1    1    2 2
     2    1    3 1
     3    1    4 1
     4    1    8 1
     5    3   32 1
     6    4   33 1
     7    5    6 2
     8    5    7 1
     9    5    8 1
    10    5   12 1
    11    8   34 1
    12    8   35 1
    13    9   10 2
    14    9   11 1
    15    9   12 1
    16    9   13 1
    17   13   14 1
    18   14   15 1
    19   14   36 1
    20   14   37 1
    21   15   16 1
    22   15   17 1
    23   15   38 1
    24   16   21 1
    25   17   18 1
    26   17   19 1
    27   17   39 1
    28   18   40 1
    29   19   20 1
    30   19   21 1
    31   19   41 1
    32   20   42 1
    33   21   22 1
    34   21   43 1
    35   22   23 ar
    36   22   31 ar
    37   23   24 ar
    38   23   44 1
    39   24   25 ar
    40   25   26 ar
    41   25   31 ar
    42   26   27 1
    43   26   28 ar
    44   27   45 1
    45   27   46 1
    46   28   29 ar
    47   29   30 ar
    48   29   47 1
    49   30   31 ar
@<TRIPOS>SUBSTRUCTURE
     1 ACP         1 GROUP 0 A     ****
@<TRIPOS>MOLECULE
[[5-(6-aminopurin-9-yl)-3,4-dihydroxy-tetrahydrofuran-2-yl]methoxy-oxido-phosphoryl]oxy-(phosphonomethyl)phosphinate
   47    49     1     0     0
SMALL
USER_CHARGES

@<TRIPOS>ATOM
      1 PG          6.9606    3.6436    4.6779 P.3       1 ACP         1.6478
      2 O1G         6.8089    2.9481    5.9972 O.2       1 ACP        -0.9103
      3 O2G         7.6882    5.0851    4.7329 O.3       1 ACP        -0.7989
      4 O3G         5.5823    3.9441    3.8906 O.3       1 ACP        -0.7989
      5 PB          8.2764    3.3675    1.7586 P.3       1 ACP         1.4947
      6 O1B         9.1186    2.3305    1.0523 O.co2     1 ACP        -0.8554
      7 O2B         8.7143    4.8074    1.8937 O.co2     1 ACP        -0.8554
      8 C3B         7.9387    2.7319    3.4624 C.3       1 ACP        -0.6550
      9 PA          6.1592    3.5244   -0.3148 P.3       1 ACP         1.5921
     10 O1A         6.6744    2.4082   -1.1976 O.co2     1 ACP        -0.8561
     11 O2A         6.3656    4.9722   -0.7036 O.co2     1 ACP        -0.8561
     12 O3A         6.7482    3.3058    1.1928 O.3       1 ACP        -0.8166
     13 O5'         4.5669    3.2941   -0.0211 O.3       1 ACP        -0.5737
     14 C5'         4.0922    1.9801    0.2227 C.3       1 ACP         0.2197
     15 C4'         2.5944    2.0310    0.4653 C.3       1 ACP         0.0944
     16 O4'         1.9327    2.5740   -0.6889 O.3       1 ACP        -0.4017
     17 C3'         1.9685    0.6634    0.6767 C.3       1 ACP         0.0859
     18 O3'         2.1425    0.1975    1.9977 O.3       1 ACP        -0.5941
     19 C2'         0.5176    0.9128    0.3099 C.3       1 ACP         0.0924
     20 O2'        -0.2103    1.4454    1.4152 O.3       1 ACP        -0.5928
     21 C1'         0.6219    1.9765   -0.7844 C.3       1 ACP         0.3967
     22 N9          0.4237    1.4496   -2.1357 N.pl3     1 ACP        -0.6763
     23 C8          1.4026    0.9717   -2.9660 C.ar      1 ACP         0.5586
     24 N7          0.9183    0.5619   -4.1197 N.2       1 ACP        -0.5795
     25 C5         -0.4330    0.7845   -4.0331 C.ar      1 ACP        -0.2116
     26 C6         -1.4794    0.5615   -4.9225 C.ar      1 ACP         0.7185
     27 N6         -1.2378    0.0044   -6.1899 N.pl3     1 ACP        -0.9442
     28 N1         -2.7406    0.8885   -4.5512 N.ar      1 ACP        -0.8040
     29 C2         -2.9113    1.4216   -3.3172 C.ar      1 ACP         0.6560
     30 N3         -1.9824    1.6843   -2.3721 N.ar      1 ACP        -0.7058
     31 C4         -0.7613    1.3370   -2.8054 C.ar      1 ACP         0.5729
     32 HOG2        7.2868    5.7995    5.2719 H         1 ACP         0.4440
     33 HOG3        4.9037    4.5082    4.3188 H         1 ACP         0.4440
     34 H3B1        8.9226    2.5407    3.9055 H         1 ACP         0.1084
     35 H3B2        7.4543    1.7580    3.3278 H         1 ACP         0.1084
     36 H5'1        4.3181    1.3551   -0.6470 H         1 ACP         0.0281
     37 H5'2        4.6085    1.5740    1.0982 H         1 ACP         0.0281
     38 H4'         2.3751    2.7029    1.3156 H         1 ACP         0.1082
     39 H3'         2.4336   -0.1217   -0.0015 H         1 ACP         0.0650
     40 HO3'        1.7160   -0.6716    2.0397 H         1 ACP         0.4300
     41 H2'         0.0316    0.0155   -0.0339 H         1 ACP         0.0785
     42 HO2'       -0.1608    0.7921    2.1351 H         1 ACP         0.4275
     43 H1'        -0.1474    2.7798   -0.6651 H         1 ACP         0.1009
     44 H8          2.4442    0.9470   -2.6763 H         1 ACP         0.1067
     45 HN61       -0.2955   -0.1901   -6.4713 H         1 ACP         0.4213
     46 HN62       -1.9987   -0.1045   -6.8334 H         1 ACP         0.4213
     47 H2         -3.9335    1.6716   -3.0534 H         1 ACP         0.0365
@<TRIPOS>BOND
     1    1    2 2
     2    1    3 1
     3    1    4 1
     4    1    8 1
     5    3   32 1
     6    4   33 1
     7    5    6 2
     8    5    7 1
     9    5    8 1
    10    5   12 1
    11    8   34 1
    12    8   35 1
    13    9   10 2
    14    9   11 1
    15    9   12 1
    16    9   13 1
    17   13   14 1
    18   14   15 1
    19   14   36 1
    20   14   37 1
    21   15   16 1
    22   15   17 1
    23   15   38 1
    24   16   21 1
    25   17   18 1
    26   17   19 1
    27   17   39 1
    28   18   40 1
    29   19   20 1
    30   19   21 1
    31   19   41 1
    32   20   42 1
    33   21   22 1
    34   21   43 1
    35   22   23 ar
    36   22   31 ar
    37   23   24 ar
    38   23   44 1
    39   24   25 ar
    40   25   26 ar
    41   25   31 ar
    42   26   27 1
    43   26   28 ar
    44   27   45 1
    45   27   46 1
    46   28   29 ar
    47   29   30 ar
    48   29   47 1
    49   30   31 ar
@<TRIPOS>SUBSTRUCTURE
     1 ACP         1 GROUP 0 A     ****
@<TRIPOS>MOLECULE
[[5-(6-aminopurin-9-yl)-3,4-dihydroxy-tetrahydrofuran-2-yl]methoxy-oxido-phosphoryl]oxy-(phosphonomethyl)phosphinate
   47    49     1     0     0
SMALL
USER_CHARGES

@<TRIPOS>ATOM
      1 PG         -3.8111    6.9049    0.1308 P.3       1 ACP         1.6478
      2 O1G        -3.3598    8.2536   -0.3432 O.2       1 ACP        -0.9103
      3 O2G        -2.9956    5.6482   -0.4739 O.3       1 ACP        -0.7989
      4 O3G        -5.3540    6.5415   -0.1810 O.3       1 ACP        -0.7989
      5 PB         -2.0832    6.7718    2.8375 P.3       1 ACP         1.4947
      6 O1B        -2.3858    6.5102    4.2948 O.co2     1 ACP        -0.8554
      7 O2B        -1.3813    8.0263    2.3715 O.co2     1 ACP        -0.8554
      8 C3B        -3.6835    6.6611    1.9168 C.3       1 ACP        -0.6550
      9 PA          0.0332    4.7082    2.5761 P.3       1 ACP         1.5921
     10 O1A        -0.1148    4.1078    3.9574 O.co2     1 ACP        -0.8561
     11 O2A         1.1835    5.6391    2.2595 O.co2     1 ACP        -0.8561
     12 O3A        -1.3627    5.4617    2.1868 O.3       1 ACP        -0.8166
     13 O5'         0.0182    3.5132    1.4596 O.3       1 ACP        -0.5737
     14 C5'        -0.8811    2.4285    1.6206 C.3       1 ACP         0.2197
     15 C4'        -0.1994    1.3333    2.4288 C.3       1 ACP         0.0944
     16 O4'        -1.1285    0.2356    2.5840 O.3       1 ACP        -0.4017
     17 C3'         1.0324    0.7610    1.7344 C.3       1 ACP         0.0859
     18 O3'         1.9175    0.2377    2.7247 O.3       1 ACP        -0.5941
     19 C2'         0.4468   -0.3802    0.9263 C.3       1 ACP         0.0924
     20 O2'         1.3993   -1.3703    0.5961 O.3       1 ACP        -0.5928
     21 C1'        -0.6159   -0.9100    1.8769 C.3       1 ACP         0.3967
     22 N9         -1.7127   -1.6108    1.2130 N.pl3     1 ACP        -0.6763
     23 C8         -1.7712   -2.9546    0.9544 C.ar      1 ACP         0.5586
     24 N7         -2.8883   -3.2948    0.3462 N.2       1 ACP        -0.5795
     25 C5         -3.5834   -2.1202    0.2043 C.ar      1 ACP        -0.2116
     26 C6         -4.8225   -1.8251   -0.3554 C.ar      1 ACP         0.7185
     27 N6         -5.6154   -2.8394   -0.9189 N.pl3     1 ACP        -0.9442
     28 N1         -5.2589   -0.5425   -0.3507 N.ar      1 ACP        -0.8040
     29 C2         -4.4510    0.3913    0.2069 C.ar      1 ACP         0.6560
     30 N3         -3.2368    0.2296    0.7767 N.ar      1 ACP        -0.7058
     31 C4         -2.8684   -1.0596    0.7376 C.ar      1 ACP         0.5729
     32 HOG2       -2.9892    5.5087   -1.4448 H         1 ACP         0.4440
     33 HOG3       -5.6581    6.5199   -1.1132 H         1 ACP         0.4440
     34 H3B1       -4.3506    7.3849    2.3982 H         1 ACP         0.1084
     35 H3B2       -4.0845    5.6642    2.1328 H         1 ACP         0.1084
     36 H5'1       -1.7769    2.7852    2.1386 H         1 ACP         0.0281
     37 H5'2       -1.1652    2.0544    0.6320 H         1 ACP         0.0281
     38 H4'         0.0403    1.7078    3.4343 H         1 ACP         0.1082
     39 H3'         1.5906    1.4859    1.1353 H         1 ACP         0.0650
     40 HO3'        2.6839   -0.1150    2.2479 H         1 ACP         0.4300
     41 H2'        -0.0017    0.0018    0.0005 H         1 ACP         0.0785
     42 HO2'        2.0953   -0.9375    0.0709 H         1 ACP         0.4275
     43 H1'        -0.1998   -1.6319    2.6178 H         1 ACP         0.1009
     44 H8         -0.9745   -3.6312    1.2318 H         1 ACP         0.1067
     45 HN61       -5.2619   -3.7766   -0.9586 H         1 ACP         0.4213
     46 HN62       -6.4834   -2.5990   -1.3590 H         1 ACP         0.4213
     47 H2         -4.8317    1.4071    0.1930 H         1 ACP         0.0365
@<TRIPOS>BOND
     1    1    2 2
     2    1    3 1
     3    1    4 1
     4    1    8 1
     5    3   32 1
     6    4   33 1
     7    5    6 2
     8    5    7 1
     9    5    8 1
    10    5   12 1
    11    8   34 1
    12    8   35 1
    13    9   10 2
    14    9   11 1
    15    9   12 1
    16    9   13 1
    17   13   14 1
    18   14   15 1
    19   14   36 1
    20   14   37 1
    21   15   16 1
    22   15   17 1
    23   15   38 1
    24   16   21 1
    25   17   18 1
    26   17   19 1
    27   17   39 1
    28   18   40 1
    29   19   20 1
    30   19   21 1
    31   19   41 1
    32   20   42 1
    33   21   22 1
    34   21   43 1
    35   22   23 ar
    36   22   31 ar
    37   23   24 ar
    38   23   44 1
    39   24   25 ar
    40   25   26 ar
    41   25   31 ar
    42   26   27 1
    43   26   28 ar
    44   27   45 1
    45   27   46 1
    46   28   29 ar
    47   29   30 ar
    48   29   47 1
    49   30   31 ar
@<TRIPOS>SUBSTRUCTURE
     1 ACP         1 GROUP 0 A     ****
@<TRIPOS>MOLECULE
[[5-(6-aminopurin-9-yl)-3,4-dihydroxy-tetrahydrofuran-2-yl]methoxy-oxido-phosphoryl]oxy-(phosphonomethyl)phosphinate
   47    49     1     0     0
SMALL
USER_CHARGES

@<TRIPOS>ATOM
      1 PG          9.4932    1.8926    3.4041 P.3       1 ACP         1.6478
      2 O1G         9.7415    1.6428    1.9470 O.2       1 ACP        -0.9103
      3 O2G        10.0188    3.3140    3.9640 O.3       1 ACP        -0.7989
      4 O3G        10.1549    0.8190    4.4137 O.3       1 ACP        -0.7989
      5 PB          6.5042    3.0495    3.1650 P.3       1 ACP         1.4947
      6 O1B         6.9600    4.4500    3.5035 O.co2     1 ACP        -0.8554
      7 O2B         5.1349    2.5332    3.5418 O.co2     1 ACP        -0.8554
      8 C3B         7.7489    1.8808    3.8761 C.3       1 ACP        -0.6550
      9 PA          6.2485    3.4955    0.2424 P.3       1 ACP         1.5921
     10 O1A         6.7225    2.7149   -0.9645 O.co2     1 ACP        -0.8561
     11 O2A         6.5390    4.9755    0.3658 O.co2     1 ACP        -0.8561
     12 O3A         6.7934    2.7484    1.5887 O.3       1 ACP        -0.8166
     13 O5'         4.6404    3.2702    0.4379 O.3       1 ACP        -0.5737
     14 C5'         4.0922    1.9801    0.2227 C.3       1 ACP         0.2197
     15 C4'         2.5944    2.0310    0.4653 C.3       1 ACP         0.0944
     16 O4'         1.9327    2.5740   -0.6889 O.3       1 ACP        -0.4017
     17 C3'         1.9685    0.6634    0.6767 C.3       1 ACP         0.0859
     18 O3'         2.1425    0.1975    1.9977 O.3       1 ACP        -0.5941
     19 C2'         0.5176    0.9128    0.3099 C.3       1 ACP         0.0924
     20 O2'        -0.2103    1.4454    1.4152 O.3       1 ACP        -0.5928
     21 C1'         0.6219    1.9765   -0.7844 C.3       1 ACP         0.3967
     22 N9          0.4237    1.4496   -2.1357 N.pl3     1 ACP        -0.6763
     23 C8          1.4026    0.9717   -2.9660 C.ar      1 ACP         0.5586
     24 N7          0.9183    0.5619   -4.1197 N.2       1 ACP        -0.5795
     25 C5         -0.4330    0.7845   -4.0331 C.ar      1 ACP        -0.2116
     26 C6         -1.4794    0.5615   -4.9225 C.ar      1 ACP         0.7185
     27 N6         -1.2378    0.0044   -6.1899 N.pl3     1 ACP        -0.9442
     28 N1         -2.7406    0.8885   -4.5512 N.ar      1 ACP        -0.8040
     29 C2         -2.9113    1.4216   -3.3172 C.ar      1 ACP         0.6560
     30 N3         -1.9824    1.6843   -2.3721 N.ar      1 ACP        -0.7058
     31 C4         -0.7613    1.3370   -2.8054 C.ar      1 ACP         0.5729
     32 HOG2       10.9747    3.5250    3.9020 H         1 ACP         0.4440
     33 HOG3       11.1286    0.7014    4.4107 H         1 ACP         0.4440
     34 H3B1        7.3583    0.8769    3.6748 H         1 ACP         0.1084
     35 H3B2        7.7103    2.0268    4.9616 H         1 ACP         0.1084
     36 H5'1        4.3030    1.6732   -0.8066 H         1 ACP         0.0281
     37 H5'2        4.5679    1.2741    0.9106 H         1 ACP         0.0281
     38 H4'         2.3751    2.7029    1.3156 H         1 ACP         0.1082
     39 H3'         2.4336   -0.1217   -0.0015 H         1 ACP         0.0650
     40 HO3'        1.7160   -0.6716    2.0397 H         1 ACP         0.4300
     41 H2'         0.0316    0.0155   -0.0339 H         1 ACP         0.0785
     42 HO2'       -0.1608    0.7921    2.1351 H         1 ACP         0.4275
     43 H1'        -0.1474    2.7798   -0.6651 H         1 ACP         0.1009
     44 H8          2.4442    0.9470   -2.6763 H         1 ACP         0.1067
     45 HN61       -0.2955   -0.1901   -6.4713 H         1 ACP         0.4213
     46 HN62       -1.9987   -0.1045   -6.8334 H         1 ACP         0.4213
     47 H2         -3.9335    1.6716   -3.0534 H         1 ACP         0.0365
@<TRIPOS>BOND
     1    1    2 2
     2    1    3 1
     3    1    4 1
     4    1    8 1
     5    3   32 1
     6    4   33 1
     7    5    6 2
     8    5    7 1
     9    5    8 1
    10    5   12 1
    11    8   34 1
    12    8   35 1
    13    9   10 2
    14    9   11 1
    15    9   12 1
    16    9   13 1
    17   13   14 1
    18   14   15 1
    19   14   36 1
    20   14   37 1
    21   15   16 1
    22   15   17 1
    23   15   38 1
    24   16   21 1
    25   17   18 1
    26   17   19 1
    27   17   39 1
    28   18   40 1
    29   19   20 1
    30   19   21 1
    31   19   41 1
    32   20   42 1
    33   21   22 1
    34   21   43 1
    35   22   23 ar
    36   22   31 ar
    37   23   24 ar
    38   23   44 1
    39   24   25 ar
    40   25   26 ar
    41   25   31 ar
    42   26   27 1
    43   26   28 ar
    44   27   45 1
    45   27   46 1
    46   28   29 ar
    47   29   30 ar
    48   29   47 1
    49   30   31 ar
@<TRIPOS>SUBSTRUCTURE
     1 ACP         1 GROUP 0 A     ****
@<TRIPOS>MOLECULE
[[5-(6-aminopurin-9-yl)-3,4-dihydroxy-tetrahydrofuran-2-yl]methoxy-oxido-phosphoryl]oxy-(phosphonomethyl)phosphinate
   47    49     1     0     0
SMALL
USER_CHARGES

@<TRIPOS>ATOM
      1 PG         -3.5764   -2.1481   -6.2708 P.3       1 ACP         1.6478
      2 O1G        -2.4758   -1.5398   -7.0869 O.2       1 ACP        -0.9103
      3 O2G        -3.6097   -3.7631   -6.2447 O.3       1 ACP        -0.7989
      4 O3G        -5.0752   -1.7448   -6.7188 O.3       1 ACP        -0.7989
      5 PB         -3.6591    0.0384   -3.9165 P.3       1 ACP         1.4947
      6 O1B        -3.5896   -0.0030   -2.4075 O.co2     1 ACP        -0.8554
      7 O2B        -4.8054    0.6906   -4.6542 O.co2     1 ACP        -0.8554
      8 C3B        -3.5373   -1.7061   -4.5190 C.3       1 ACP        -0.6550
      9 PA         -1.6496    2.0940   -4.6528 P.3       1 ACP         1.5921
     10 O1A        -2.6557    2.9329   -5.4107 O.co2     1 ACP        -0.8561
     11 O2A        -0.2125    2.0061   -5.1188 O.co2     1 ACP        -0.8561
     12 O3A        -2.2405    0.5778   -4.5128 O.3       1 ACP        -0.8166
     13 O5'        -1.6520    2.5338   -3.0775 O.3       1 ACP        -0.5737
     14 C5'        -0.7794    1.8744   -2.1748 C.3       1 ACP         0.2197
     15 C4'        -0.9699    2.4597   -0.7819 C.3       1 ACP         0.0944
     16 O4'        -2.1475    1.8640   -0.2014 O.3       1 ACP        -0.4017
     17 C3'         0.1697    2.1347    0.1695 C.3       1 ACP         0.0859
     18 O3'         0.1809    3.0982    1.2223 O.3       1 ACP        -0.5941
     19 C2'        -0.2543    0.7880    0.7187 C.3       1 ACP         0.0924
     20 O2'         0.3606    0.4944    1.9582 O.3       1 ACP        -0.5928
     21 C1'        -1.7682    0.9516    0.8548 C.3       1 ACP         0.3967
     22 N9         -2.5926   -0.2553    0.7436 N.pl3     1 ACP        -0.6763
     23 C8         -2.2879   -1.3752    0.0161 C.ar      1 ACP         0.5586
     24 N7         -3.2214   -2.2987    0.1123 N.2       1 ACP        -0.5795
     25 C5         -4.1723   -1.7531    0.9377 C.ar      1 ACP        -0.2116
     26 C6         -5.3870   -2.2342    1.4159 C.ar      1 ACP         0.7185
     27 N6         -5.8433   -3.5142    1.0574 N.pl3     1 ACP        -0.9442
     28 N1         -6.1289   -1.4512    2.2356 N.ar      1 ACP        -0.8040
     29 C2         -5.6370   -0.2275    2.5461 C.ar      1 ACP         0.6560
     30 N3         -4.4810    0.3469    2.1476 N.ar      1 ACP        -0.7058
     31 C4         -3.7996   -0.4810    1.3417 C.ar      1 ACP         0.5729
     32 HOG2       -3.7174   -4.2498   -7.0894 H         1 ACP         0.4440
     33 HOG3       -5.3756   -1.9656   -7.6260 H         1 ACP         0.4440
     34 H3B1       -4.3516   -2.2462   -4.0231 H         1 ACP         0.1084
     35 H3B2       -2.5988   -2.0985   -4.1111 H         1 ACP         0.1084
     36 H5'1       -1.0116    0.8048   -2.1755 H         1 ACP         0.0281
     37 H5'2        0.2522    2.0163   -2.5121 H         1 ACP         0.0281
     38 H4'        -1.1469    3.5409   -0.8522 H         1 ACP         0.1082
     39 H3'         1.1601    2.1310   -0.2934 H         1 ACP         0.0650
     40 HO3'        0.9173    2.8584    1.8048 H         1 ACP         0.4300
     41 H2'        -0.0024   -0.0091    0.0062 H         1 ACP         0.0785
     42 HO2'        0.0384   -0.3797    2.2403 H         1 ACP         0.4275
     43 H1'        -2.0584    1.4255    1.8301 H         1 ACP         0.1009
     44 H8         -1.3765   -1.4593   -0.5599 H         1 ACP         0.1067
     45 HN61       -5.3086   -4.0656    0.4134 H         1 ACP         0.4213
     46 HN62       -6.7426   -3.8233    1.3745 H         1 ACP         0.4213
     47 H2         -6.2570    0.3723    3.2040 H         1 ACP         0.0365
@<TRIPOS>BOND
     1    1    2 2
     2    1    3 1
     3    1    4 1
     4    1    8 1
     5    3   32 1
     6    4   33 1
     7    5    6 2
     8    5    7 1
     9    5    8 1
    10    5   12 1
    11    8   34 1
    12    8   35 1
    13    9   10 2
    14    9   11 1
    15    9   12 1
    16    9   13 1
    17   13   14 1
    18   14   15 1
    19   14   36 1
    20   14   37 1
    21   15   16 1
    22   15   17 1
    23   15   38 1
    24   16   21 1
    25   17   18 1
    26   17   19 1
    27   17   39 1
    28   18   40 1
    29   19   20 1
    30   19   21 1
    31   19   41 1
    32   20   42 1
    33   21   22 1
    34   21   43 1
    35   22   23 ar
    36   22   31 ar
    37   23   24 ar
    38   23   44 1
    39   24   25 ar
    40   25   26 ar
    41   25   31 ar
    42   26   27 1
    43   26   28 ar
    44   27   45 1
    45   27   46 1
    46   28   29 ar
    47   29   30 ar
    48   29   47 1
    49   30   31 ar
@<TRIPOS>SUBSTRUCTURE
     1 ACP         1 GROUP 0 A     ****
@<TRIPOS>MOLECULE
[[5-(6-aminopurin-9-yl)-3,4-dihydroxy-tetrahydrofuran-2-yl]methoxy-oxido-phosphoryl]oxy-(phosphonomethyl)phosphinate
   47    49     1     0     0
SMALL
USER_CHARGES

@<TRIPOS>ATOM
      1 PG         -3.4502    8.0037    2.8920 P.3       1 ACP         1.6478
      2 O1G        -2.9837    7.3436    4.1546 O.2       1 ACP        -0.9103
      3 O2G        -2.6059    9.3032    2.4354 O.3       1 ACP        -0.7989
      4 O3G        -4.9774    8.5301    2.9088 O.3       1 ACP        -0.7989
      5 PB         -1.8375    6.1739    0.7989 P.3       1 ACP         1.4947
      6 O1B        -0.8896    7.3009    0.4597 O.co2     1 ACP        -0.8554
      7 O2B        -2.2309    5.1191   -0.2091 O.co2     1 ACP        -0.8554
      8 C3B        -3.3971    6.9409    1.4315 C.3       1 ACP        -0.6550
      9 PA          0.0332    4.7082    2.5761 P.3       1 ACP         1.5921
     10 O1A        -0.1148    4.1078    3.9574 O.co2     1 ACP        -0.8561
     11 O2A         1.1835    5.6391    2.2595 O.co2     1 ACP        -0.8561
     12 O3A        -1.3627    5.4617    2.1868 O.3       1 ACP        -0.8166
     13 O5'         0.0182    3.5132    1.4596 O.3       1 ACP        -0.5737
     14 C5'        -0.8811    2.4285    1.6206 C.3       1 ACP         0.2197
     15 C4'        -0.1994    1.3333    2.4288 C.3       1 ACP         0.0944
     16 O4'        -1.1285    0.2356    2.5840 O.3       1 ACP        -0.4017
     17 C3'         1.0324    0.7610    1.7344 C.3       1 ACP         0.0859
     18 O3'         1.9175    0.2377    2.7247 O.3       1 ACP        -0.5941
     19 C2'         0.4468   -0.3802    0.9263 C.3       1 ACP         0.0924
     20 O2'         1.3993   -1.3703    0.5961 O.3       1 ACP        -0.5928
     21 C1'        -0.6159   -0.9100    1.8769 C.3       1 ACP         0.3967
     22 N9         -1.7127   -1.6108    1.2130 N.pl3     1 ACP        -0.6763
     23 C8         -1.7712   -2.9546    0.9544 C.ar      1 ACP         0.5586
     24 N7         -2.8883   -3.2948    0.3462 N.2       1 ACP        -0.5795
     25 C5         -3.5834   -2.1202    0.2043 C.ar      1 ACP        -0.2116
     26 C6         -4.8225   -1.8251   -0.3554 C.ar      1 ACP         0.7185
     27 N6         -5.6154   -2.8394   -0.9189 N.pl3     1 ACP        -0.9442
     28 N1         -5.2589   -0.5425   -0.3507 N.ar      1 ACP        -0.8040
     29 C2         -4.4510    0.3913    0.2069 C.ar      1 ACP         0.6560
     30 N3         -3.2368    0.2296    0.7767 N.ar      1 ACP        -0.7058
     31 C4         -2.8684   -1.0596    0.7376 C.ar      1 ACP         0.5729
     32 HOG2       -2.5582   10.0749    3.0389 H         1 ACP         0.4440
     33 HOG3       -5.2419    9.1998    3.5748 H         1 ACP         0.4440
     34 H3B1       -4.0863    6.1065    1.6040 H         1 ACP         0.1084
     35 H3B2       -3.8037    7.5236    0.5970 H         1 ACP         0.1084
     36 H5'1       -1.7769    2.7852    2.1386 H         1 ACP         0.0281
     37 H5'2       -1.1652    2.0544    0.6320 H         1 ACP         0.0281
     38 H4'         0.0403    1.7078    3.4343 H         1 ACP         0.1082
     39 H3'         1.5906    1.4859    1.1353 H         1 ACP         0.0650
     40 HO3'        2.6839   -0.1150    2.2479 H         1 ACP         0.4300
     41 H2'        -0.0017    0.0018    0.0005 H         1 ACP         0.0785
     42 HO2'        2.0953   -0.9375    0.0709 H         1 ACP         0.4275
     43 H1'        -0.1998   -1.6319    2.6178 H         1 ACP         0.1009
     44 H8         -0.9745   -3.6312    1.2318 H         1 ACP         0.1067
     45 HN61       -5.2619   -3.7766   -0.9586 H         1 ACP         0.4213
     46 HN62       -6.4834   -2.5990   -1.3590 H         1 ACP         0.4213
     47 H2         -4.8317    1.4071    0.1930 H         1 ACP         0.0365
@<TRIPOS>BOND
     1    1    2 2
     2    1    3 1
     3    1    4 1
     4    1    8 1
     5    3   32 1
     6    4   33 1
     7    5    6 2
     8    5    7 1
     9    5    8 1
    10    5   12 1
    11    8   34 1
    12    8   35 1
    13    9   10 2
    14    9   11 1
    15    9   12 1
    16    9   13 1
    17   13   14 1
    18   14   15 1
    19   14   36 1
    20   14   37 1
    21   15   16 1
    22   15   17 1
    23   15   38 1
    24   16   21 1
    25   17   18 1
    26   17   19 1
    27   17   39 1
    28   18   40 1
    29   19   20 1
    30   19   21 1
    31   19   41 1
    32   20   42 1
    33   21   22 1
    34   21   43 1
    35   22   23 ar
    36   22   31 ar
    37   23   24 ar
    38   23   44 1
    39   24   25 ar
    40   25   26 ar
    41   25   31 ar
    42   26   27 1
    43   26   28 ar
    44   27   45 1
    45   27   46 1
    46   28   29 ar
    47   29   30 ar
    48   29   47 1
    49   30   31 ar
@<TRIPOS>SUBSTRUCTURE
     1 ACP         1 GROUP 0 A     ****
@<TRIPOS>MOLECULE
[[5-(6-aminopurin-9-yl)-3,4-dihydroxy-tetrahydrofuran-2-yl]methoxy-oxido-phosphoryl]oxy-(phosphonomethyl)phosphinate
   47    49     1     0     0
SMALL
USER_CHARGES

@<TRIPOS>ATOM
      1 PG          6.5193   -1.7594   -2.6683 P.3       1 ACP         1.6478
      2 O1G         7.3682   -2.4741   -3.6762 O.2       1 ACP        -0.9103
      3 O2G         4.9253   -1.9655   -2.8324 O.3       1 ACP        -0.7989
      4 O3G         6.6924   -0.1537   -2.6306 O.3       1 ACP        -0.7989
      5 PB          5.9139   -1.5176    0.4789 P.3       1 ACP         1.4947
      6 O1B         6.4477   -2.1752    1.7304 O.co2     1 ACP        -0.8554
      7 O2B         4.4440   -1.5236    0.1281 O.co2     1 ACP        -0.8554
      8 C3B         6.8260   -2.2468   -0.9554 C.3       1 ACP        -0.6550
      9 PA          6.3565    1.2769    1.3737 P.3       1 ACP         1.5921
     10 O1A         6.9863    2.4835    0.7118 O.co2     1 ACP        -0.8561
     11 O2A         6.7864    0.8458    2.7591 O.co2     1 ACP        -0.8561
     12 O3A         6.5021   -0.0008    0.3670 O.3       1 ACP        -0.8166
     13 O5'         4.7294    1.4425    1.3700 O.3       1 ACP        -0.5737
     14 C5'         4.0922    1.9801    0.2227 C.3       1 ACP         0.2197
     15 C4'         2.5944    2.0310    0.4653 C.3       1 ACP         0.0944
     16 O4'         1.9327    2.5740   -0.6889 O.3       1 ACP        -0.4017
     17 C3'         1.9685    0.6634    0.6767 C.3       1 ACP         0.0859
     18 O3'         2.1425    0.1975    1.9977 O.3       1 ACP        -0.5941
     19 C2'         0.5176    0.9128    0.3099 C.3       1 ACP         0.0924
     20 O2'        -0.2103    1.4454    1.4152 O.3       1 ACP        -0.5928
     21 C1'         0.6219    1.9765   -0.7844 C.3       1 ACP         0.3967
     22 N9          0.4237    1.4496   -2.1357 N.pl3     1 ACP        -0.6763
     23 C8          1.4026    0.9717   -2.9660 C.ar      1 ACP         0.5586
     24 N7          0.9183    0.5619   -4.1197 N.2       1 ACP        -0.5795
     25 C5         -0.4330    0.7845   -4.0331 C.ar      1 ACP        -0.2116
     26 C6         -1.4794    0.5615   -4.9225 C.ar      1 ACP         0.7185
     27 N6         -1.2378    0.0044   -6.1899 N.pl3     1 ACP        -0.9442
     28 N1         -2.7406    0.8885   -4.5512 N.ar      1 ACP        -0.8040
     29 C2         -2.9113    1.4216   -3.3172 C.ar      1 ACP         0.6560
     30 N3         -1.9824    1.6843   -2.3721 N.ar      1 ACP        -0.7058
     31 C4         -0.7613    1.3370   -2.8054 C.ar      1 ACP         0.5729
     32 HOG2        4.4935   -1.6855   -3.6674 H         1 ACP         0.4440
     33 HOG3        6.4934    0.3648   -3.4391 H         1 ACP         0.4440
     34 H3B1        6.6672   -3.3288   -0.8857 H         1 ACP         0.1084
     35 H3B2        7.8886   -2.0665   -0.7570 H         1 ACP         0.1084
     36 H5'1        4.4845    2.9853    0.0383 H         1 ACP         0.0281
     37 H5'2        4.3193    1.3444   -0.6389 H         1 ACP         0.0281
     38 H4'         2.3751    2.7029    1.3156 H         1 ACP         0.1082
     39 H3'         2.4336   -0.1217   -0.0015 H         1 ACP         0.0650
     40 HO3'        3.0987    0.1465    2.1461 H         1 ACP         0.4300
     41 H2'         0.0316    0.0155   -0.0339 H         1 ACP         0.0785
     42 HO2'       -0.1608    0.7921    2.1351 H         1 ACP         0.4275
     43 H1'        -0.1474    2.7798   -0.6651 H         1 ACP         0.1009
     44 H8          2.4442    0.9470   -2.6763 H         1 ACP         0.1067
     45 HN61       -0.2955   -0.1901   -6.4713 H         1 ACP         0.4213
     46 HN62       -1.9987   -0.1045   -6.8334 H         1 ACP         0.4213
     47 H2         -3.9335    1.6716   -3.0534 H         1 ACP         0.0365
@<TRIPOS>BOND
     1    1    2 2
     2    1    3 1
     3    1    4 1
     4    1    8 1
     5    3   32 1
     6    4   33 1
     7    5    6 2
     8    5    7 1
     9    5    8 1
    10    5   12 1
    11    8   34 1
    12    8   35 1
    13    9   10 2
    14    9   11 1
    15    9   12 1
    16    9   13 1
    17   13   14 1
    18   14   15 1
    19   14   36 1
    20   14   37 1
    21   15   16 1
    22   15   17 1
    23   15   38 1
    24   16   21 1
    25   17   18 1
    26   17   19 1
    27   17   39 1
    28   18   40 1
    29   19   20 1
    30   19   21 1
    31   19   41 1
    32   20   42 1
    33   21   22 1
    34   21   43 1
    35   22   23 ar
    36   22   31 ar
    37   23   24 ar
    38   23   44 1
    39   24   25 ar
    40   25   26 ar
    41   25   31 ar
    42   26   27 1
    43   26   28 ar
    44   27   45 1
    45   27   46 1
    46   28   29 ar
    47   29   30 ar
    48   29   47 1
    49   30   31 ar
@<TRIPOS>SUBSTRUCTURE
     1 ACP         1 GROUP 0 A     ****
@<TRIPOS>MOLECULE
[[5-(6-aminopurin-9-yl)-3,4-dihydroxy-tetrahydrofuran-2-yl]methoxy-oxido-phosphoryl]oxy-(phosphonomethyl)phosphinate
   47    49     1     0     0
SMALL
USER_CHARGES

@<TRIPOS>ATOM
      1 PG          7.7252    1.5659    4.0779 P.3       1 ACP         1.6478
      2 O1G         6.5192    1.1552    4.8680 O.2       1 ACP        -0.9103
      3 O2G         7.9202    0.8076    2.6647 O.3       1 ACP        -0.7989
      4 O3G         9.1444    1.3558    4.8203 O.3       1 ACP        -0.7989
      5 PB          6.4454    4.1059    2.5810 P.3       1 ACP         1.4947
      6 O1B         6.8219    5.5603    2.4180 O.co2     1 ACP        -0.8554
      7 O2B         5.1083    3.6758    3.1384 O.co2     1 ACP        -0.8554
      8 C3B         7.7558    3.3133    3.6182 C.3       1 ACP        -0.6550
      9 PA          6.1592    3.5244   -0.3148 P.3       1 ACP         1.5921
     10 O1A         6.6744    2.4082   -1.1976 O.co2     1 ACP        -0.8561
     11 O2A         6.3656    4.9722   -0.7036 O.co2     1 ACP        -0.8561
     12 O3A         6.7482    3.3058    1.1928 O.3       1 ACP        -0.8166
     13 O5'         4.5669    3.2941   -0.0211 O.3       1 ACP        -0.5737
     14 C5'         4.0922    1.9801    0.2227 C.3       1 ACP         0.2197
     15 C4'         2.5944    2.0310    0.4653 C.3       1 ACP         0.0944
     16 O4'         1.9327    2.5740   -0.6889 O.3       1 ACP        -0.4017
     17 C3'         1.9685    0.6634    0.6767 C.3       1 ACP         0.0859
     18 O3'         2.1425    0.1975    1.9977 O.3       1 ACP        -0.5941
     19 C2'         0.5176    0.9128    0.3099 C.3       1 ACP         0.0924
     20 O2'        -0.2103    1.4454    1.4152 O.3       1 ACP        -0.5928
     21 C1'         0.6219    1.9765   -0.7844 C.3       1 ACP         0.3967
     22 N9          0.4237    1.4496   -2.1357 N.pl3     1 ACP        -0.6763
     23 C8         -0.7736    1.3475   -2.7932 C.ar      1 ACP         0.5586
     24 N7         -0.6356    0.8373   -3.9991 N.2       1 ACP        -0.5795
     25 C5          0.7095    0.5981   -4.1281 C.ar      1 ACP        -0.2116
     26 C6          1.4733    0.0704   -5.1643 C.ar      1 ACP         0.7185
     27 N6          0.8693   -0.3355   -6.3666 N.pl3     1 ACP        -0.9442
     28 N1          2.8130   -0.0482   -5.0009 N.ar      1 ACP        -0.8040
     29 C2          3.3380    0.3602   -3.8204 C.ar      1 ACP         0.6560
     30 N3          2.7052    0.8841   -2.7480 N.ar      1 ACP        -0.7058
     31 C4          1.3867    0.9726   -2.9785 C.ar      1 ACP         0.5729
     32 HOG2        8.0208   -0.1680    2.6590 H         1 ACP         0.4440
     33 HOG3        9.4060    0.4524    5.0986 H         1 ACP         0.4440
     34 H3B1        7.7923    3.8985    4.5439 H         1 ACP         0.1084
     35 H3B2        8.7009    3.4889    3.0918 H         1 ACP         0.1084
     36 H5'1        4.3181    1.3551   -0.6470 H         1 ACP         0.0281
     37 H5'2        4.6085    1.5740    1.0982 H         1 ACP         0.0281
     38 H4'         2.3751    2.7029    1.3156 H         1 ACP         0.1082
     39 H3'         2.4336   -0.1217   -0.0015 H         1 ACP         0.0650
     40 HO3'        1.7160   -0.6716    2.0397 H         1 ACP         0.4300
     41 H2'         0.0316    0.0155   -0.0339 H         1 ACP         0.0785
     42 HO2'       -0.1608    0.7921    2.1351 H         1 ACP         0.4275
     43 H1'        -0.1474    2.7798   -0.6651 H         1 ACP         0.1009
     44 H8         -1.7070    1.6599   -2.3451 H         1 ACP         0.1067
     45 HN61       -0.1277   -0.2866   -6.4583 H         1 ACP         0.4213
     46 HN62        1.4308   -0.7566   -7.0823 H         1 ACP         0.4213
     47 H2          4.4130    0.2505   -3.7241 H         1 ACP         0.0365
@<TRIPOS>BOND
     1    1    2 2
     2    1    3 1
     3    1    4 1
     4    1    8 1
     5    3   32 1
     6    4   33 1
     7    5    6 2
     8    5    7 1
     9    5    8 1
    10    5   12 1
    11    8   34 1
    12    8   35 1
    13    9   10 2
    14    9   11 1
    15    9   12 1
    16    9   13 1
    17   13   14 1
    18   14   15 1
    19   14   36 1
    20   14   37 1
    21   15   16 1
    22   15   17 1
    23   15   38 1
    24   16   21 1
    25   17   18 1
    26   17   19 1
    27   17   39 1
    28   18   40 1
    29   19   20 1
    30   19   21 1
    31   19   41 1
    32   20   42 1
    33   21   22 1
    34   21   43 1
    35   22   23 ar
    36   22   31 ar
    37   23   24 ar
    38   23   44 1
    39   24   25 ar
    40   25   26 ar
    41   25   31 ar
    42   26   27 1
    43   26   28 ar
    44   27   45 1
    45   27   46 1
    46   28   29 ar
    47   29   30 ar
    48   29   47 1
    49   30   31 ar
@<TRIPOS>SUBSTRUCTURE
     1 ACP         1 GROUP 0 A     ****
@<TRIPOS>MOLECULE
[[5-(6-aminopurin-9-yl)-3,4-dihydroxy-tetrahydrofuran-2-yl]methoxy-oxido-phosphoryl]oxy-(phosphonomethyl)phosphinate
   47    49     1     0     0
SMALL
USER_CHARGES

@<TRIPOS>ATOM
      1 PG          7.0046   -0.7062    3.2711 P.3       1 ACP         1.6478
      2 O1G         5.7697    0.1374    3.1674 O.2       1 ACP        -0.9103
      3 O2G         6.9101   -1.9519    4.2955 O.3       1 ACP        -0.7989
      4 O3G         8.3385    0.0731    3.7433 O.3       1 ACP        -0.7989
      5 PB          7.9438   -0.5175    0.2031 P.3       1 ACP         1.4947
      6 O1B         8.3094   -1.5136   -0.8729 O.co2     1 ACP        -0.8554
      7 O2B         8.8786    0.5913    0.6278 O.co2     1 ACP        -0.8554
      8 C3B         7.5092   -1.4832    1.7195 C.3       1 ACP        -0.6550
      9 PA          5.8978    0.9307   -1.3850 P.3       1 ACP         1.5921
     10 O1A         5.9190    0.0229   -2.5958 O.co2     1 ACP        -0.8561
     11 O2A         6.5864    2.2777   -1.4195 O.co2     1 ACP        -0.8561
     12 O3A         6.4633    0.0945   -0.1011 O.3       1 ACP        -0.8166
     13 O5'         4.3514    1.1573   -0.9028 O.3       1 ACP        -0.5737
     14 C5'         4.0922    1.9801    0.2227 C.3       1 ACP         0.2197
     15 C4'         2.5944    2.0310    0.4653 C.3       1 ACP         0.0944
     16 O4'         1.9327    2.5740   -0.6889 O.3       1 ACP        -0.4017
     17 C3'         1.9685    0.6634    0.6767 C.3       1 ACP         0.0859
     18 O3'         2.1425    0.1975    1.9977 O.3       1 ACP        -0.5941
     19 C2'         0.5176    0.9128    0.3099 C.3       1 ACP         0.0924
     20 O2'        -0.2103    1.4454    1.4152 O.3       1 ACP        -0.5928
     21 C1'         0.6219    1.9765   -0.7844 C.3       1 ACP         0.3967
     22 N9          0.4237    1.4496   -2.1357 N.pl3     1 ACP        -0.6763
     23 C8          1.4026    0.9717   -2.9660 C.ar      1 ACP         0.5586
     24 N7          0.9183    0.5619   -4.1197 N.2       1 ACP        -0.5795
     25 C5         -0.4330    0.7845   -4.0331 C.ar      1 ACP        -0.2116
     26 C6         -1.4794    0.5615   -4.9225 C.ar      1 ACP         0.7185
     27 N6         -1.2378    0.0044   -6.1899 N.pl3     1 ACP        -0.9442
     28 N1         -2.7406    0.8885   -4.5512 N.ar      1 ACP        -0.8040
     29 C2         -2.9113    1.4216   -3.3172 C.ar      1 ACP         0.6560
     30 N3         -1.9824    1.6843   -2.3721 N.ar      1 ACP        -0.7058
     31 C4         -0.7613    1.3370   -2.8054 C.ar      1 ACP         0.5729
     32 HOG2        6.7288   -1.7750    5.2431 H         1 ACP         0.4440
     33 HOG3        8.3451    0.5167    4.6180 H         1 ACP         0.4440
     34 H3B1        8.3843   -2.1078    1.9314 H         1 ACP         0.1084
     35 H3B2        6.6992   -2.1588    1.4219 H         1 ACP         0.1084
     36 H5'1        4.6070    1.5616    1.0933 H         1 ACP         0.0281
     37 H5'2        4.4825    2.9835    0.0251 H         1 ACP         0.0281
     38 H4'         2.3751    2.7029    1.3156 H         1 ACP         0.1082
     39 H3'         2.4336   -0.1217   -0.0015 H         1 ACP         0.0650
     40 HO3'        1.7160   -0.6716    2.0397 H         1 ACP         0.4300
     41 H2'         0.0316    0.0155   -0.0339 H         1 ACP         0.0785
     42 HO2'       -0.1608    0.7921    2.1351 H         1 ACP         0.4275
     43 H1'        -0.1474    2.7798   -0.6651 H         1 ACP         0.1009
     44 H8          2.4442    0.9470   -2.6763 H         1 ACP         0.1067
     45 HN61       -0.2955   -0.1901   -6.4713 H         1 ACP         0.4213
     46 HN62       -1.9987   -0.1045   -6.8334 H         1 ACP         0.4213
     47 H2         -3.9335    1.6716   -3.0534 H         1 ACP         0.0365
@<TRIPOS>BOND
     1    1    2 2
     2    1    3 1
     3    1    4 1
     4    1    8 1
     5    3   32 1
     6    4   33 1
     7    5    6 2
     8    5    7 1
     9    5    8 1
    10    5   12 1
    11    8   34 1
    12    8   35 1
    13    9   10 2
    14    9   11 1
    15    9   12 1
    16    9   13 1
    17   13   14 1
    18   14   15 1
    19   14   36 1
    20   14   37 1
    21   15   16 1
    22   15   17 1
    23   15   38 1
    24   16   21 1
    25   17   18 1
    26   17   19 1
    27   17   39 1
    28   18   40 1
    29   19   20 1
    30   19   21 1
    31   19   41 1
    32   20   42 1
    33   21   22 1
    34   21   43 1
    35   22   23 ar
    36   22   31 ar
    37   23   24 ar
    38   23   44 1
    39   24   25 ar
    40   25   26 ar
    41   25   31 ar
    42   26   27 1
    43   26   28 ar
    44   27   45 1
    45   27   46 1
    46   28   29 ar
    47   29   30 ar
    48   29   47 1
    49   30   31 ar
@<TRIPOS>SUBSTRUCTURE
     1 ACP         1 GROUP 0 A     ****
@<TRIPOS>MOLECULE
[[5-(6-aminopurin-9-yl)-3,4-dihydroxy-tetrahydrofuran-2-yl]methoxy-oxido-phosphoryl]oxy-(phosphonomethyl)phosphinate
   47    49     1     0     0
SMALL
USER_CHARGES

@<TRIPOS>ATOM
      1 PG         -4.7299    6.0473    1.0522 P.3       1 ACP         1.6478
      2 O1G        -5.4876    7.3345    0.9250 O.2       1 ACP        -0.9103
      3 O2G        -5.0664    5.1710    2.3672 O.3       1 ACP        -0.7989
      4 O3G        -3.1214    6.1912    1.0935 O.3       1 ACP        -0.7989
      5 PB         -4.1905    3.2248   -0.3873 P.3       1 ACP         1.4947
      6 O1B        -4.6678    2.5557   -1.6555 O.co2     1 ACP        -0.8554
      7 O2B        -4.3400    2.5798    0.9711 O.co2     1 ACP        -0.8554
      8 C3B        -5.0045    4.8834   -0.3026 C.3       1 ACP        -0.6550
      9 PA         -1.2906    2.9169   -0.9367 P.3       1 ACP         1.5921
     10 O1A        -0.1214    3.8755   -0.8688 O.co2     1 ACP        -0.8561
     11 O2A        -1.5363    2.0878   -2.1785 O.co2     1 ACP        -0.8561
     12 O3A        -2.6568    3.7411   -0.5877 O.3       1 ACP        -0.8166
     13 O5'        -1.2434    1.9101    0.3513 O.3       1 ACP        -0.5737
     14 C5'        -0.8811    2.4285    1.6206 C.3       1 ACP         0.2197
     15 C4'        -0.1994    1.3333    2.4288 C.3       1 ACP         0.0944
     16 O4'        -1.1285    0.2356    2.5840 O.3       1 ACP        -0.4017
     17 C3'         1.0324    0.7610    1.7344 C.3       1 ACP         0.0859
     18 O3'         1.9175    0.2377    2.7247 O.3       1 ACP        -0.5941
     19 C2'         0.4468   -0.3802    0.9263 C.3       1 ACP         0.0924
     20 O2'         1.3993   -1.3703    0.5961 O.3       1 ACP        -0.5928
     21 C1'        -0.6159   -0.9100    1.8769 C.3       1 ACP         0.3967
     22 N9         -1.7127   -1.6108    1.2130 N.pl3     1 ACP        -0.6763
     23 C8         -2.8641   -1.0399    0.7392 C.ar      1 ACP         0.5586
     24 N7         -3.6659   -1.9257    0.1858 N.2       1 ACP        -0.5795
     25 C5         -3.0053   -3.1223    0.3069 C.ar      1 ACP        -0.2116
     26 C6         -3.3321   -4.4178   -0.0813 C.ar      1 ACP         0.7185
     27 N6         -4.5476   -4.6866   -0.7335 N.pl3     1 ACP        -0.9442
     28 N1         -2.4608   -5.4225    0.1773 N.ar      1 ACP        -0.8040
     29 C2         -1.3053   -5.1020    0.8081 C.ar      1 ACP         0.6560
     30 N3         -0.8788   -3.8921    1.2315 N.ar      1 ACP        -0.7058
     31 C4         -1.7870   -2.9477    0.9438 C.ar      1 ACP         0.5729
     32 HOG2       -4.9107    5.5638    3.2524 H         1 ACP         0.4440
     33 HOG3       -2.7098    6.7184    1.8109 H         1 ACP         0.4440
     34 H3B1       -6.0810    4.6859   -0.3563 H         1 ACP         0.1084
     35 H3B2       -4.7280    5.3999   -1.2288 H         1 ACP         0.1084
     36 H5'1       -0.2035    3.2759    1.4765 H         1 ACP         0.0281
     37 H5'2       -1.7842    2.7761    2.1320 H         1 ACP         0.0281
     38 H4'         0.0403    1.7078    3.4343 H         1 ACP         0.1082
     39 H3'         1.5906    1.4859    1.1353 H         1 ACP         0.0650
     40 HO3'        2.6839   -0.1150    2.2479 H         1 ACP         0.4300
     41 H2'        -0.0017    0.0018    0.0005 H         1 ACP         0.0785
     42 HO2'        2.0953   -0.9375    0.0709 H         1 ACP         0.4275
     43 H1'        -0.1998   -1.6319    2.6178 H         1 ACP         0.1009
     44 H8         -3.0609    0.0200    0.8250 H         1 ACP         0.1067
     45 HN61       -5.2046   -3.9433   -0.8775 H         1 ACP         0.4213
     46 HN62       -4.7849   -5.6332   -0.9625 H         1 ACP         0.4213
     47 H2         -0.6318   -5.9307    0.9993 H         1 ACP         0.0365
@<TRIPOS>BOND
     1    1    2 2
     2    1    3 1
     3    1    4 1
     4    1    8 1
     5    3   32 1
     6    4   33 1
     7    5    6 2
     8    5    7 1
     9    5    8 1
    10    5   12 1
    11    8   34 1
    12    8   35 1
    13    9   10 2
    14    9   11 1
    15    9   12 1
    16    9   13 1
    17   13   14 1
    18   14   15 1
    19   14   36 1
    20   14   37 1
    21   15   16 1
    22   15   17 1
    23   15   38 1
    24   16   21 1
    25   17   18 1
    26   17   19 1
    27   17   39 1
    28   18   40 1
    29   19   20 1
    30   19   21 1
    31   19   41 1
    32   20   42 1
    33   21   22 1
    34   21   43 1
    35   22   23 ar
    36   22   31 ar
    37   23   24 ar
    38   23   44 1
    39   24   25 ar
    40   25   26 ar
    41   25   31 ar
    42   26   27 1
    43   26   28 ar
    44   27   45 1
    45   27   46 1
    46   28   29 ar
    47   29   30 ar
    48   29   47 1
    49   30   31 ar
@<TRIPOS>SUBSTRUCTURE
     1 ACP         1 GROUP 0 A     ****
@<TRIPOS>MOLECULE
[[5-(6-aminopurin-9-yl)-3,4-dihydroxy-tetrahydrofuran-2-yl]methoxy-oxido-phosphoryl]oxy-(phosphonomethyl)phosphinate
   47    49     1     0     0
SMALL
USER_CHARGES

@<TRIPOS>ATOM
      1 PG         -1.0472    8.6937    1.7475 P.3       1 ACP         1.6478
      2 O1G        -1.1445    8.2291    0.3256 O.2       1 ACP        -0.9103
      3 O2G        -2.4132    9.2789    2.3814 O.3       1 ACP        -0.7989
      4 O3G         0.0306    9.8654    2.0214 O.3       1 ACP        -0.7989
      5 PB         -1.5478    5.8637    3.1865 P.3       1 ACP         1.4947
      6 O1B        -2.9213    6.2833    3.6567 O.co2     1 ACP        -0.8554
      7 O2B        -0.6821    4.9077    3.9741 O.co2     1 ACP        -0.8554
      8 C3B        -0.5639    7.4072    2.9209 C.3       1 ACP        -0.6550
      9 PA         -0.4662    4.8323    0.6228 P.3       1 ACP         1.5921
     10 O1A         0.6572    5.8459    0.5874 O.co2     1 ACP        -0.8561
     11 O2A        -1.1249    4.3667   -0.6576 O.co2     1 ACP        -0.8561
     12 O3A        -1.6280    5.3822    1.6306 O.3       1 ACP        -0.8166
     13 O5'         0.0182    3.5132    1.4596 O.3       1 ACP        -0.5737
     14 C5'        -0.8811    2.4285    1.6206 C.3       1 ACP         0.2197
     15 C4'        -0.1994    1.3333    2.4288 C.3       1 ACP         0.0944
     16 O4'        -1.1285    0.2356    2.5840 O.3       1 ACP        -0.4017
     17 C3'         1.0324    0.7610    1.7344 C.3       1 ACP         0.0859
     18 O3'         1.9175    0.2377    2.7247 O.3       1 ACP        -0.5941
     19 C2'         0.4468   -0.3802    0.9263 C.3       1 ACP         0.0924
     20 O2'         1.3993   -1.3703    0.5961 O.3       1 ACP        -0.5928
     21 C1'        -0.6159   -0.9100    1.8769 C.3       1 ACP         0.3967
     22 N9         -1.7127   -1.6108    1.2130 N.pl3     1 ACP        -0.6763
     23 C8         -2.8641   -1.0399    0.7392 C.ar      1 ACP         0.5586
     24 N7         -3.6659   -1.9257    0.1858 N.2       1 ACP        -0.5795
     25 C5         -3.0053   -3.1223    0.3069 C.ar      1 ACP        -0.2116
     26 C6         -3.3321   -4.4178   -0.0813 C.ar      1 ACP         0.7185
     27 N6         -4.5476   -4.6866   -0.7335 N.pl3     1 ACP        -0.9442
     28 N1         -2.4608   -5.4225    0.1773 N.ar      1 ACP        -0.8040
     29 C2         -1.3053   -5.1020    0.8081 C.ar      1 ACP         0.6560
     30 N3         -0.8788   -3.8921    1.2315 N.ar      1 ACP        -0.7058
     31 C4         -1.7870   -2.9477    0.9438 C.ar      1 ACP         0.5729
     32 HOG2       -2.8356   10.0586    1.9622 H         1 ACP         0.4440
     33 HOG3       -0.0699   10.7221    1.5546 H         1 ACP         0.4440
     34 H3B1        0.4427    7.0710    2.6475 H         1 ACP         0.1084
     35 H3B2       -0.4851    7.8846    3.9043 H         1 ACP         0.1084
     36 H5'1       -1.7769    2.7852    2.1386 H         1 ACP         0.0281
     37 H5'2       -1.1652    2.0544    0.6320 H         1 ACP         0.0281
     38 H4'         0.0403    1.7078    3.4343 H         1 ACP         0.1082
     39 H3'         1.5906    1.4859    1.1353 H         1 ACP         0.0650
     40 HO3'        2.6839   -0.1150    2.2479 H         1 ACP         0.4300
     41 H2'        -0.0017    0.0018    0.0005 H         1 ACP         0.0785
     42 HO2'        2.0953   -0.9375    0.0709 H         1 ACP         0.4275
     43 H1'        -0.1998   -1.6319    2.6178 H         1 ACP         0.1009
     44 H8         -3.0609    0.0200    0.8250 H         1 ACP         0.1067
     45 HN61       -5.2046   -3.9433   -0.8775 H         1 ACP         0.4213
     46 HN62       -4.7849   -5.6332   -0.9625 H         1 ACP         0.4213
     47 H2         -0.6318   -5.9307    0.9993 H         1 ACP         0.0365
@<TRIPOS>BOND
     1    1    2 2
     2    1    3 1
     3    1    4 1
     4    1    8 1
     5    3   32 1
     6    4   33 1
     7    5    6 2
     8    5    7 1
     9    5    8 1
    10    5   12 1
    11    8   34 1
    12    8   35 1
    13    9   10 2
    14    9   11 1
    15    9   12 1
    16    9   13 1
    17   13   14 1
    18   14   15 1
    19   14   36 1
    20   14   37 1
    21   15   16 1
    22   15   17 1
    23   15   38 1
    24   16   21 1
    25   17   18 1
    26   17   19 1
    27   17   39 1
    28   18   40 1
    29   19   20 1
    30   19   21 1
    31   19   41 1
    32   20   42 1
    33   21   22 1
    34   21   43 1
    35   22   23 ar
    36   22   31 ar
    37   23   24 ar
    38   23   44 1
    39   24   25 ar
    40   25   26 ar
    41   25   31 ar
    42   26   27 1
    43   26   28 ar
    44   27   45 1
    45   27   46 1
    46   28   29 ar
    47   29   30 ar
    48   29   47 1
    49   30   31 ar
@<TRIPOS>SUBSTRUCTURE
     1 ACP         1 GROUP 0 A     ****
@<TRIPOS>MOLECULE
[[5-(6-aminopurin-9-yl)-3,4-dihydroxy-tetrahydrofuran-2-yl]methoxy-oxido-phosphoryl]oxy-(phosphonomethyl)phosphinate
   47    49     1     0     0
SMALL
USER_CHARGES

@<TRIPOS>ATOM
      1 PG         -1.2647    8.7897    2.0310 P.3       1 ACP         1.6478
      2 O1G        -0.3715    9.9233    1.6258 O.2       1 ACP        -0.9103
      3 O2G        -2.8174    9.1757    2.2555 O.3       1 ACP        -0.7989
      4 O3G        -0.8570    8.0431    3.4043 O.3       1 ACP        -0.7989
      5 PB         -2.3703    5.9214    1.0926 P.3       1 ACP         1.4947
      6 O1B        -2.1722    5.0352   -0.1153 O.co2     1 ACP        -0.8554
      7 O2B        -3.7388    6.3763    1.5443 O.co2     1 ACP        -0.8554
      8 C3B        -1.3427    7.4375    0.8348 C.3       1 ACP        -0.6550
      9 PA         -1.9154    4.0917    3.3841 P.3       1 ACP         1.5921
     10 O1A        -3.2739    4.3706    3.9902 O.co2     1 ACP        -0.8561
     11 O2A        -0.7157    3.8308    4.2687 O.co2     1 ACP        -0.8561
     12 O3A        -1.5461    5.3085    2.3591 O.3       1 ACP        -0.8166
     13 O5'        -2.0402    2.8619    2.3132 O.3       1 ACP        -0.5737
     14 C5'        -0.8811    2.4285    1.6206 C.3       1 ACP         0.2197
     15 C4'        -0.1994    1.3333    2.4288 C.3       1 ACP         0.0944
     16 O4'        -1.1285    0.2356    2.5840 O.3       1 ACP        -0.4017
     17 C3'         1.0324    0.7610    1.7344 C.3       1 ACP         0.0859
     18 O3'         1.9175    0.2377    2.7247 O.3       1 ACP        -0.5941
     19 C2'         0.4468   -0.3802    0.9263 C.3       1 ACP         0.0924
     20 O2'         1.3993   -1.3703    0.5961 O.3       1 ACP        -0.5928
     21 C1'        -0.6159   -0.9100    1.8769 C.3       1 ACP         0.3967
     22 N9         -1.7127   -1.6108    1.2130 N.pl3     1 ACP        -0.6763
     23 C8         -1.7712   -2.9546    0.9544 C.ar      1 ACP         0.5586
     24 N7         -2.8883   -3.2948    0.3462 N.2       1 ACP        -0.5795
     25 C5         -3.5834   -2.1202    0.2043 C.ar      1 ACP        -0.2116
     26 C6         -4.8225   -1.8251   -0.3554 C.ar      1 ACP         0.7185
     27 N6         -5.6154   -2.8394   -0.9189 N.pl3     1 ACP        -0.9442
     28 N1         -5.2589   -0.5425   -0.3507 N.ar      1 ACP        -0.8040
     29 C2         -4.4510    0.3913    0.2069 C.ar      1 ACP         0.6560
     30 N3         -3.2368    0.2296    0.7767 N.ar      1 ACP        -0.7058
     31 C4         -2.8684   -1.0596    0.7376 C.ar      1 ACP         0.5729
     32 HOG2       -3.0474    9.8429    2.9367 H         1 ACP         0.4440
     33 HOG3       -0.8287    8.5613    4.2366 H         1 ACP         0.4440
     34 H3B1       -1.6752    7.8594   -0.1204 H         1 ACP         0.1084
     35 H3B2       -0.3167    7.0818    0.6869 H         1 ACP         0.1084
     36 H5'1       -1.1771    2.0504    0.6370 H         1 ACP         0.0281
     37 H5'2       -0.2083    3.2816    1.4878 H         1 ACP         0.0281
     38 H4'         0.0403    1.7078    3.4343 H         1 ACP         0.1082
     39 H3'         1.5906    1.4859    1.1353 H         1 ACP         0.0650
     40 HO3'        2.6839   -0.1150    2.2479 H         1 ACP         0.4300
     41 H2'        -0.0017    0.0018    0.0005 H         1 ACP         0.0785
     42 HO2'        0.9369   -2.0558    0.0825 H         1 ACP         0.4275
     43 H1'        -0.1998   -1.6319    2.6178 H         1 ACP         0.1009
     44 H8         -0.9745   -3.6312    1.2318 H         1 ACP         0.1067
     45 HN61       -6.5251   -2.6138   -1.2745 H         1 ACP         0.4213
     46 HN62       -5.3033   -3.7910   -0.8740 H         1 ACP         0.4213
     47 H2         -4.8317    1.4071    0.1930 H         1 ACP         0.0365
@<TRIPOS>BOND
     1    1    2 2
     2    1    3 1
     3    1    4 1
     4    1    8 1
     5    3   32 1
     6    4   33 1
     7    5    6 2
     8    5    7 1
     9    5    8 1
    10    5   12 1
    11    8   34 1
    12    8   35 1
    13    9   10 2
    14    9   11 1
    15    9   12 1
    16    9   13 1
    17   13   14 1
    18   14   15 1
    19   14   36 1
    20   14   37 1
    21   15   16 1
    22   15   17 1
    23   15   38 1
    24   16   21 1
    25   17   18 1
    26   17   19 1
    27   17   39 1
    28   18   40 1
    29   19   20 1
    30   19   21 1
    31   19   41 1
    32   20   42 1
    33   21   22 1
    34   21   43 1
    35   22   23 ar
    36   22   31 ar
    37   23   24 ar
    38   23   44 1
    39   24   25 ar
    40   25   26 ar
    41   25   31 ar
    42   26   27 1
    43   26   28 ar
    44   27   45 1
    45   27   46 1
    46   28   29 ar
    47   29   30 ar
    48   29   47 1
    49   30   31 ar
@<TRIPOS>SUBSTRUCTURE
     1 ACP         1 GROUP 0 A     ****
@<TRIPOS>MOLECULE
[[5-(6-aminopurin-9-yl)-3,4-dihydroxy-tetrahydrofuran-2-yl]methoxy-oxido-phosphoryl]oxy-(phosphonomethyl)phosphinate
   47    49     1     0     0
SMALL
USER_CHARGES

@<TRIPOS>ATOM
      1 PG          0.1604    5.9677   -1.2111 P.3       1 ACP         1.6478
      2 O1G        -0.3984    4.6361   -1.6135 O.2       1 ACP        -0.9103
      3 O2G         0.4704    6.9862   -2.4264 O.3       1 ACP        -0.7989
      4 O3G         1.5532    5.9165   -0.3944 O.3       1 ACP        -0.7989
      5 PB         -1.4708    6.3353    1.5337 P.3       1 ACP         1.4947
      6 O1B        -2.3506    7.4117    2.1260 O.co2     1 ACP        -0.8554
      7 O2B        -0.2513    5.8042    2.2510 O.co2     1 ACP        -0.8554
      8 C3B        -0.9172    6.9317   -0.1272 C.3       1 ACP        -0.6550
      9 PA         -3.0799    3.8626    1.8539 P.3       1 ACP         1.5921
     10 O1A        -3.7199    2.9140    0.8633 O.co2     1 ACP        -0.8561
     11 O2A        -3.8856    4.4438    2.9954 O.co2     1 ACP        -0.8561
     12 O3A        -2.3969    5.0932    1.0252 O.3       1 ACP        -0.8166
     13 O5'        -1.7337    3.1724    2.4754 O.3       1 ACP        -0.5737
     14 C5'        -0.8811    2.4285    1.6206 C.3       1 ACP         0.2197
     15 C4'        -0.1994    1.3333    2.4288 C.3       1 ACP         0.0944
     16 O4'        -1.1285    0.2356    2.5840 O.3       1 ACP        -0.4017
     17 C3'         1.0324    0.7610    1.7344 C.3       1 ACP         0.0859
     18 O3'         1.9175    0.2377    2.7247 O.3       1 ACP        -0.5941
     19 C2'         0.4468   -0.3802    0.9263 C.3       1 ACP         0.0924
     20 O2'         1.3993   -1.3703    0.5961 O.3       1 ACP        -0.5928
     21 C1'        -0.6159   -0.9100    1.8769 C.3       1 ACP         0.3967
     22 N9         -1.7127   -1.6108    1.2130 N.pl3     1 ACP        -0.6763
     23 C8         -2.0877   -2.9101    1.4304 C.ar      1 ACP         0.5586
     24 N7         -3.1152   -3.2613    0.6857 N.2       1 ACP        -0.5795
     25 C5         -3.4186   -2.1409   -0.0462 C.ar      1 ACP        -0.2116
     26 C6         -4.3953   -1.8809   -1.0023 C.ar      1 ACP         0.7185
     27 N6         -5.3118   -2.8767   -1.3812 N.pl3     1 ACP        -0.9442
     28 N1         -4.4538   -0.6507   -1.5667 N.ar      1 ACP        -0.8040
     29 C2         -3.5442    0.2679   -1.1609 C.ar      1 ACP         0.6560
     30 N3         -2.5561    0.1361   -0.2491 N.ar      1 ACP        -0.7058
     31 C4         -2.5568   -1.1019    0.2674 C.ar      1 ACP         0.5729
     32 HOG2        1.1127    6.7192   -3.1179 H         1 ACP         0.4440
     33 HOG3        2.3379    5.5084   -0.8183 H         1 ACP         0.4440
     34 H3B1       -0.4278    7.8953    0.0543 H         1 ACP         0.1084
     35 H3B2       -1.8338    7.1403   -0.6908 H         1 ACP         0.1084
     36 H5'1       -1.4802    1.9929    0.8148 H         1 ACP         0.0281
     37 H5'2       -0.1370    3.1043    1.1873 H         1 ACP         0.0281
     38 H4'         0.0403    1.7078    3.4343 H         1 ACP         0.1082
     39 H3'         1.5906    1.4859    1.1353 H         1 ACP         0.0650
     40 HO3'        2.6839   -0.1150    2.2479 H         1 ACP         0.4300
     41 H2'        -0.0017    0.0018    0.0005 H         1 ACP         0.0785
     42 HO2'        2.0953   -0.9375    0.0709 H         1 ACP         0.4275
     43 H1'        -0.1998   -1.6319    2.6178 H         1 ACP         0.1009
     44 H8         -1.5778   -3.5473    2.1399 H         1 ACP         0.1067
     45 HN61       -5.2294   -3.7965   -0.9914 H         1 ACP         0.4213
     46 HN62       -5.9774   -2.6837   -2.1055 H         1 ACP         0.4213
     47 H2         -3.6201    1.2414   -1.6336 H         1 ACP         0.0365
@<TRIPOS>BOND
     1    1    2 2
     2    1    3 1
     3    1    4 1
     4    1    8 1
     5    3   32 1
     6    4   33 1
     7    5    6 2
     8    5    7 1
     9    5    8 1
    10    5   12 1
    11    8   34 1
    12    8   35 1
    13    9   10 2
    14    9   11 1
    15    9   12 1
    16    9   13 1
    17   13   14 1
    18   14   15 1
    19   14   36 1
    20   14   37 1
    21   15   16 1
    22   15   17 1
    23   15   38 1
    24   16   21 1
    25   17   18 1
    26   17   19 1
    27   17   39 1
    28   18   40 1
    29   19   20 1
    30   19   21 1
    31   19   41 1
    32   20   42 1
    33   21   22 1
    34   21   43 1
    35   22   23 ar
    36   22   31 ar
    37   23   24 ar
    38   23   44 1
    39   24   25 ar
    40   25   26 ar
    41   25   31 ar
    42   26   27 1
    43   26   28 ar
    44   27   45 1
    45   27   46 1
    46   28   29 ar
    47   29   30 ar
    48   29   47 1
    49   30   31 ar
@<TRIPOS>SUBSTRUCTURE
     1 ACP         1 GROUP 0 A     ****
@<TRIPOS>MOLECULE
[[5-(6-aminopurin-9-yl)-3,4-dihydroxy-tetrahydrofuran-2-yl]methoxy-oxido-phosphoryl]oxy-(phosphonomethyl)phosphinate
   47    49     1     0     0
SMALL
USER_CHARGES

@<TRIPOS>ATOM
      1 PG         -0.3407    4.8679   -3.5974 P.3       1 ACP         1.6478
      2 O1G         0.4233    6.1014   -3.9744 O.2       1 ACP        -0.9103
      3 O2G         0.4386    3.8386   -2.6260 O.3       1 ACP        -0.7989
      4 O3G        -0.8124    3.9403   -4.8330 O.3       1 ACP        -0.7989
      5 PB         -1.9476    6.0763   -1.0898 P.3       1 ACP         1.4947
      6 O1B        -3.3990    6.1455   -0.6748 O.co2     1 ACP        -0.8554
      7 O2B        -1.0850    7.3105   -1.2178 O.co2     1 ACP        -0.8554
      8 C3B        -1.8825    5.1878   -2.7107 C.3       1 ACP        -0.6550
      9 PA         -0.5788    5.0300    1.3263 P.3       1 ACP         1.5921
     10 O1A        -1.7338    5.2023    2.2890 O.co2     1 ACP        -0.8561
     11 O2A         0.5830    5.9997    1.3349 O.co2     1 ACP        -0.8561
     12 O3A        -1.1769    4.9545   -0.1916 O.3       1 ACP        -0.8166
     13 O5'         0.0182    3.5132    1.4596 O.3       1 ACP        -0.5737
     14 C5'        -0.8811    2.4285    1.6206 C.3       1 ACP         0.2197
     15 C4'        -0.1994    1.3333    2.4288 C.3       1 ACP         0.0944
     16 O4'        -1.1285    0.2356    2.5840 O.3       1 ACP        -0.4017
     17 C3'         1.0324    0.7610    1.7344 C.3       1 ACP         0.0859
     18 O3'         1.9175    0.2377    2.7247 O.3       1 ACP        -0.5941
     19 C2'         0.4468   -0.3802    0.9263 C.3       1 ACP         0.0924
     20 O2'         1.3993   -1.3703    0.5961 O.3       1 ACP        -0.5928
     21 C1'        -0.6159   -0.9100    1.8769 C.3       1 ACP         0.3967
     22 N9         -1.7127   -1.6108    1.2130 N.pl3     1 ACP        -0.6763
     23 C8         -2.5476   -1.0844    0.2632 C.ar      1 ACP         0.5586
     24 N7         -3.4391   -1.9591   -0.1536 N.2       1 ACP        -0.5795
     25 C5         -3.1701   -3.1016    0.5574 C.ar      1 ACP        -0.2116
     26 C6         -3.7593   -4.3620    0.5656 C.ar      1 ACP         0.7185
     27 N6         -4.8512   -4.6493   -0.2712 N.pl3     1 ACP        -0.9442
     28 N1         -3.2659   -5.3144    1.3932 N.ar      1 ACP        -0.8040
     29 C2         -2.2122   -4.9785    2.1759 C.ar      1 ACP         0.6560
     30 N3         -1.5595   -3.7985    2.2572 N.ar      1 ACP        -0.7058
     31 C4         -2.0986   -2.9054    1.4140 C.ar      1 ACP         0.5729
     32 HOG2        1.2835    3.4449   -2.9310 H         1 ACP         0.4440
     33 HOG3       -0.1321    3.5602   -5.4286 H         1 ACP         0.4440
     34 H3B1       -2.5395    5.7520   -3.3821 H         1 ACP         0.1084
     35 H3B2       -2.3598    4.2163   -2.5386 H         1 ACP         0.1084
     36 H5'1       -1.7769    2.7852    2.1386 H         1 ACP         0.0281
     37 H5'2       -1.1652    2.0544    0.6320 H         1 ACP         0.0281
     38 H4'         0.0403    1.7078    3.4343 H         1 ACP         0.1082
     39 H3'         1.5906    1.4859    1.1353 H         1 ACP         0.0650
     40 HO3'        2.1521    0.9800    3.3017 H         1 ACP         0.4300
     41 H2'        -0.0017    0.0018    0.0005 H         1 ACP         0.0785
     42 HO2'        0.9369   -2.0558    0.0825 H         1 ACP         0.4275
     43 H1'        -0.1998   -1.6319    2.6178 H         1 ACP         0.1009
     44 H8         -2.4576   -0.0639   -0.0831 H         1 ACP         0.1067
     45 HN61       -5.2371   -3.9234   -0.8448 H         1 ACP         0.4213
     46 HN62       -5.2909   -5.5485   -0.2160 H         1 ACP         0.4213
     47 H2         -1.8433   -5.7650    2.8259 H         1 ACP         0.0365
@<TRIPOS>BOND
     1    1    2 2
     2    1    3 1
     3    1    4 1
     4    1    8 1
     5    3   32 1
     6    4   33 1
     7    5    6 2
     8    5    7 1
     9    5    8 1
    10    5   12 1
    11    8   34 1
    12    8   35 1
    13    9   10 2
    14    9   11 1
    15    9   12 1
    16    9   13 1
    17   13   14 1
    18   14   15 1
    19   14   36 1
    20   14   37 1
    21   15   16 1
    22   15   17 1
    23   15   38 1
    24   16   21 1
    25   17   18 1
    26   17   19 1
    27   17   39 1
    28   18   40 1
    29   19   20 1
    30   19   21 1
    31   19   41 1
    32   20   42 1
    33   21   22 1
    34   21   43 1
    35   22   23 ar
    36   22   31 ar
    37   23   24 ar
    38   23   44 1
    39   24   25 ar
    40   25   26 ar
    41   25   31 ar
    42   26   27 1
    43   26   28 ar
    44   27   45 1
    45   27   46 1
    46   28   29 ar
    47   29   30 ar
    48   29   47 1
    49   30   31 ar
@<TRIPOS>SUBSTRUCTURE
     1 ACP         1 GROUP 0 A     ****
@<TRIPOS>MOLECULE
[[5-(6-aminopurin-9-yl)-3,4-dihydroxy-tetrahydrofuran-2-yl]methoxy-oxido-phosphoryl]oxy-(phosphonomethyl)phosphinate
   47    49     1     0     0
SMALL
USER_CHARGES

@<TRIPOS>ATOM
      1 PG          7.8602    1.2114   -4.4790 P.3       1 ACP         1.6478
      2 O1G         8.7924    1.1805   -3.3053 O.2       1 ACP        -0.9103
      3 O2G         7.8069   -0.1427   -5.3587 O.3       1 ACP        -0.7989
      4 O3G         8.1603    2.3624   -5.5720 O.3       1 ACP        -0.7989
      5 PB          5.5423    3.0141   -3.1723 P.3       1 ACP         1.4947
      6 O1B         4.0477    2.8805   -2.9942 O.co2     1 ACP        -0.8554
      7 O2B         6.1699    4.2024   -3.8634 O.co2     1 ACP        -0.8554
      8 C3B         6.1282    1.4941   -4.0483 C.3       1 ACP        -0.6550
      9 PA          6.1592    3.5244   -0.3148 P.3       1 ACP         1.5921
     10 O1A         6.4205    4.9975   -0.5432 O.co2     1 ACP        -0.8561
     11 O2A         6.9491    2.7529    0.7199 O.co2     1 ACP        -0.8561
     12 O3A         6.2869    2.7480   -1.7461 O.3       1 ACP        -0.8166
     13 O5'         4.5669    3.2941   -0.0211 O.3       1 ACP        -0.5737
     14 C5'         4.0922    1.9801    0.2227 C.3       1 ACP         0.2197
     15 C4'         2.5944    2.0310    0.4653 C.3       1 ACP         0.0944
     16 O4'         1.9327    2.5740   -0.6889 O.3       1 ACP        -0.4017
     17 C3'         1.9685    0.6634    0.6767 C.3       1 ACP         0.0859
     18 O3'         2.1425    0.1975    1.9977 O.3       1 ACP        -0.5941
     19 C2'         0.5176    0.9128    0.3099 C.3       1 ACP         0.0924
     20 O2'        -0.2103    1.4454    1.4152 O.3       1 ACP        -0.5928
     21 C1'         0.6219    1.9765   -0.7844 C.3       1 ACP         0.3967
     22 N9          0.4237    1.4496   -2.1357 N.pl3     1 ACP        -0.6763
     23 C8          1.1856    0.4888   -2.7458 C.ar      1 ACP         0.5586
     24 N7          0.7615    0.2176   -3.9625 N.2       1 ACP        -0.5795
     25 C5         -0.3220    1.0389   -4.1486 C.ar      1 ACP        -0.2116
     26 C6         -1.1900    1.2182   -5.2210 C.ar      1 ACP         0.7185
     27 N6         -1.0341    0.4739   -6.4028 N.pl3     1 ACP        -0.9442
     28 N1         -2.1929    2.1227   -5.1127 N.ar      1 ACP        -0.8040
     29 C2         -2.2930    2.8097   -3.9492 C.ar      1 ACP         0.6560
     30 N3         -1.5176    2.7252   -2.8462 N.ar      1 ACP        -0.7058
     31 C4         -0.5489    1.8142   -3.0226 C.ar      1 ACP         0.5729
     32 HOG2        8.6292   -0.4643   -5.7859 H         1 ACP         0.4440
     33 HOG3        9.0291    2.3706   -6.0271 H         1 ACP         0.4440
     34 H3B1        5.5445    1.4450   -4.9745 H         1 ACP         0.1084
     35 H3B2        5.8114    0.6494   -3.4260 H         1 ACP         0.1084
     36 H5'1        4.3181    1.3551   -0.6470 H         1 ACP         0.0281
     37 H5'2        4.6085    1.5740    1.0982 H         1 ACP         0.0281
     38 H4'         2.3751    2.7029    1.3156 H         1 ACP         0.1082
     39 H3'         2.4336   -0.1217   -0.0015 H         1 ACP         0.0650
     40 HO3'        3.0987    0.1465    2.1461 H         1 ACP         0.4300
     41 H2'         0.0316    0.0155   -0.0339 H         1 ACP         0.0785
     42 HO2'       -0.1608    0.7921    2.1351 H         1 ACP         0.4275
     43 H1'        -0.1474    2.7798   -0.6651 H         1 ACP         0.1009
     44 H8          2.0314    0.0256   -2.2564 H         1 ACP         0.1067
     45 HN61       -0.2609   -0.1582   -6.4888 H         1 ACP         0.4213
     46 HN62       -1.6409    0.6517   -7.1807 H         1 ACP         0.4213
     47 H2         -3.1067    3.5253   -3.8975 H         1 ACP         0.0365
@<TRIPOS>BOND
     1    1    2 2
     2    1    3 1
     3    1    4 1
     4    1    8 1
     5    3   32 1
     6    4   33 1
     7    5    6 2
     8    5    7 1
     9    5    8 1
    10    5   12 1
    11    8   34 1
    12    8   35 1
    13    9   10 2
    14    9   11 1
    15    9   12 1
    16    9   13 1
    17   13   14 1
    18   14   15 1
    19   14   36 1
    20   14   37 1
    21   15   16 1
    22   15   17 1
    23   15   38 1
    24   16   21 1
    25   17   18 1
    26   17   19 1
    27   17   39 1
    28   18   40 1
    29   19   20 1
    30   19   21 1
    31   19   41 1
    32   20   42 1
    33   21   22 1
    34   21   43 1
    35   22   23 ar
    36   22   31 ar
    37   23   24 ar
    38   23   44 1
    39   24   25 ar
    40   25   26 ar
    41   25   31 ar
    42   26   27 1
    43   26   28 ar
    44   27   45 1
    45   27   46 1
    46   28   29 ar
    47   29   30 ar
    48   29   47 1
    49   30   31 ar
@<TRIPOS>SUBSTRUCTURE
     1 ACP         1 GROUP 0 A     ****
@<TRIPOS>MOLECULE
[[5-(6-aminopurin-9-yl)-3,4-dihydroxy-tetrahydrofuran-2-yl]methoxy-oxido-phosphoryl]oxy-(phosphonomethyl)phosphinate
   47    49     1     0     0
SMALL
USER_CHARGES

@<TRIPOS>ATOM
      1 PG         -2.2022    7.0684   -0.6523 P.3       1 ACP         1.6478
      2 O1G        -2.2460    7.3737   -2.1193 O.2       1 ACP        -0.9103
      3 O2G        -2.6083    5.5586   -0.2452 O.3       1 ACP        -0.7989
      4 O3G        -3.1596    7.9818    0.2744 O.3       1 ACP        -0.7989
      5 PB         -0.2497    6.9669    1.8986 P.3       1 ACP         1.4947
      6 O1B        -1.1365    7.9052    2.6840 O.co2     1 ACP        -0.8554
      7 O2B         1.2495    6.9282    2.0846 O.co2     1 ACP        -0.8554
      8 C3B        -0.5748    7.2781    0.1047 C.3       1 ACP        -0.6550
      9 PA         -1.1366    4.4807    3.2544 P.3       1 ACP         1.5921
     10 O1A        -2.2266    5.1034    4.0998 O.co2     1 ACP        -0.8561
     11 O2A         0.1933    4.1013    3.8686 O.co2     1 ACP        -0.8561
     12 O3A        -0.8547    5.4545    1.9738 O.3       1 ACP        -0.8166
     13 O5'        -1.7337    3.1724    2.4754 O.3       1 ACP        -0.5737
     14 C5'        -0.8811    2.4285    1.6206 C.3       1 ACP         0.2197
     15 C4'        -0.1994    1.3333    2.4288 C.3       1 ACP         0.0944
     16 O4'        -1.1285    0.2356    2.5840 O.3       1 ACP        -0.4017
     17 C3'         1.0324    0.7610    1.7344 C.3       1 ACP         0.0859
     18 O3'         1.9175    0.2377    2.7247 O.3       1 ACP        -0.5941
     19 C2'         0.4468   -0.3802    0.9263 C.3       1 ACP         0.0924
     20 O2'         1.3993   -1.3703    0.5961 O.3       1 ACP        -0.5928
     21 C1'        -0.6159   -0.9100    1.8769 C.3       1 ACP         0.3967
     22 N9         -1.7127   -1.6108    1.2130 N.pl3     1 ACP        -0.6763
     23 C8         -2.8641   -1.0399    0.7392 C.ar      1 ACP         0.5586
     24 N7         -3.6659   -1.9257    0.1858 N.2       1 ACP        -0.5795
     25 C5         -3.0053   -3.1223    0.3069 C.ar      1 ACP        -0.2116
     26 C6         -3.3321   -4.4178   -0.0813 C.ar      1 ACP         0.7185
     27 N6         -4.5476   -4.6866   -0.7335 N.pl3     1 ACP        -0.9442
     28 N1         -2.4608   -5.4225    0.1773 N.ar      1 ACP        -0.8040
     29 C2         -1.3053   -5.1020    0.8081 C.ar      1 ACP         0.6560
     30 N3         -0.8788   -3.8921    1.2315 N.ar      1 ACP        -0.7058
     31 C4         -1.7870   -2.9477    0.9438 C.ar      1 ACP         0.5729
     32 HOG2       -3.5033    5.2291   -0.4744 H         1 ACP         0.4440
     33 HOG3       -4.1271    7.9715    0.1134 H         1 ACP         0.4440
     34 H3B1        0.1278    6.6352   -0.4375 H         1 ACP         0.1084
     35 H3B2       -0.2674    8.3138   -0.0797 H         1 ACP         0.1084
     36 H5'1       -1.4802    1.9929    0.8148 H         1 ACP         0.0281
     37 H5'2       -0.1370    3.1043    1.1873 H         1 ACP         0.0281
     38 H4'         0.0403    1.7078    3.4343 H         1 ACP         0.1082
     39 H3'         1.5906    1.4859    1.1353 H         1 ACP         0.0650
     40 HO3'        2.1521    0.9800    3.3017 H         1 ACP         0.4300
     41 H2'        -0.0017    0.0018    0.0005 H         1 ACP         0.0785
     42 HO2'        0.9369   -2.0558    0.0825 H         1 ACP         0.4275
     43 H1'        -0.1998   -1.6319    2.6178 H         1 ACP         0.1009
     44 H8         -3.0609    0.0200    0.8250 H         1 ACP         0.1067
     45 HN61       -5.2046   -3.9433   -0.8775 H         1 ACP         0.4213
     46 HN62       -4.7849   -5.6332   -0.9625 H         1 ACP         0.4213
     47 H2         -0.6318   -5.9307    0.9993 H         1 ACP         0.0365
@<TRIPOS>BOND
     1    1    2 2
     2    1    3 1
     3    1    4 1
     4    1    8 1
     5    3   32 1
     6    4   33 1
     7    5    6 2
     8    5    7 1
     9    5    8 1
    10    5   12 1
    11    8   34 1
    12    8   35 1
    13    9   10 2
    14    9   11 1
    15    9   12 1
    16    9   13 1
    17   13   14 1
    18   14   15 1
    19   14   36 1
    20   14   37 1
    21   15   16 1
    22   15   17 1
    23   15   38 1
    24   16   21 1
    25   17   18 1
    26   17   19 1
    27   17   39 1
    28   18   40 1
    29   19   20 1
    30   19   21 1
    31   19   41 1
    32   20   42 1
    33   21   22 1
    34   21   43 1
    35   22   23 ar
    36   22   31 ar
    37   23   24 ar
    38   23   44 1
    39   24   25 ar
    40   25   26 ar
    41   25   31 ar
    42   26   27 1
    43   26   28 ar
    44   27   45 1
    45   27   46 1
    46   28   29 ar
    47   29   30 ar
    48   29   47 1
    49   30   31 ar
@<TRIPOS>SUBSTRUCTURE
     1 ACP         1 GROUP 0 A     ****
@<TRIPOS>MOLECULE
[[5-(6-aminopurin-9-yl)-3,4-dihydroxy-tetrahydrofuran-2-yl]methoxy-oxido-phosphoryl]oxy-(phosphonomethyl)phosphinate
   47    49     1     0     0
SMALL
USER_CHARGES

@<TRIPOS>ATOM
      1 PG          1.9554    4.6630   -5.5509 P.3       1 ACP         1.6478
      2 O1G         3.3643    5.0565   -5.2232 O.2       1 ACP        -0.9103
      3 O2G         1.2653    5.4919   -6.7538 O.3       1 ACP        -0.7989
      4 O3G         0.8972    4.8024   -4.3382 O.3       1 ACP        -0.7989
      5 PB          0.1305    2.2049   -6.5293 P.3       1 ACP         1.4947
      6 O1B         0.3799    0.7617   -6.9014 O.co2     1 ACP        -0.8554
      7 O2B        -0.5536    3.1733   -7.4661 O.co2     1 ACP        -0.8554
      8 C3B         1.7630    2.9427   -6.0695 C.3       1 ACP        -0.6550
      9 PA         -1.9759    1.6544   -4.5128 P.3       1 ACP         1.5921
     10 O1A        -1.8783    0.1444   -4.5430 O.co2     1 ACP        -0.8561
     11 O2A        -3.1136    2.3673   -5.2108 O.co2     1 ACP        -0.8561
     12 O3A        -0.5665    2.2753   -5.0567 O.3       1 ACP        -0.8166
     13 O5'        -1.9208    2.1717   -2.9622 O.3       1 ACP        -0.5737
     14 C5'        -0.7794    1.8744   -2.1748 C.3       1 ACP         0.2197
     15 C4'        -0.9699    2.4597   -0.7819 C.3       1 ACP         0.0944
     16 O4'        -2.1475    1.8640   -0.2014 O.3       1 ACP        -0.4017
     17 C3'         0.1697    2.1347    0.1695 C.3       1 ACP         0.0859
     18 O3'         0.1809    3.0982    1.2223 O.3       1 ACP        -0.5941
     19 C2'        -0.2543    0.7880    0.7187 C.3       1 ACP         0.0924
     20 O2'         0.3606    0.4944    1.9582 O.3       1 ACP        -0.5928
     21 C1'        -1.7682    0.9516    0.8548 C.3       1 ACP         0.3967
     22 N9         -2.5926   -0.2553    0.7436 N.pl3     1 ACP        -0.6763
     23 C8         -3.5599   -0.4866   -0.1983 C.ar      1 ACP         0.5586
     24 N7         -4.1294   -1.6639   -0.0461 N.2       1 ACP        -0.5795
     25 C5         -3.5041   -2.2191    1.0420 C.ar      1 ACP        -0.2116
     26 C6         -3.6604   -3.4390    1.6925 C.ar      1 ACP         0.7185
     27 N6         -4.6108   -4.3735    1.2468 N.pl3     1 ACP        -0.9442
     28 N1         -2.8820   -3.7179    2.7657 N.ar      1 ACP        -0.8040
     29 C2         -1.9837   -2.7784    3.1481 C.ar      1 ACP         0.6560
     30 N3         -1.7408   -1.5668    2.6022 N.ar      1 ACP        -0.7058
     31 C4         -2.5438   -1.3578    1.5483 C.ar      1 ACP         0.5729
     32 HOG2        1.1687    6.4641   -6.6665 H         1 ACP         0.4440
     33 HOG3        0.7524    5.6837   -3.9329 H         1 ACP         0.4440
     34 H3B1        2.4125    2.7841   -6.9377 H         1 ACP         0.1084
     35 H3B2        2.1556    2.3185   -5.2586 H         1 ACP         0.1084
     36 H5'1       -0.6602    0.7877   -2.1203 H         1 ACP         0.0281
     37 H5'2        0.1041    2.3072   -2.6545 H         1 ACP         0.0281
     38 H4'        -1.1469    3.5409   -0.8522 H         1 ACP         0.1082
     39 H3'         1.1601    2.1310   -0.2934 H         1 ACP         0.0650
     40 HO3'        0.3098    3.9616    0.8017 H         1 ACP         0.4300
     41 H2'        -0.0024   -0.0091    0.0062 H         1 ACP         0.0785
     42 HO2'        1.3225    0.4909    1.8095 H         1 ACP         0.4275
     43 H1'        -2.0584    1.4255    1.8301 H         1 ACP         0.1009
     44 H8         -3.8030    0.2355   -0.9657 H         1 ACP         0.1067
     45 HN61       -5.2130   -4.1372    0.4810 H         1 ACP         0.4213
     46 HN62       -4.7404   -5.2263    1.7576 H         1 ACP         0.4213
     47 H2         -1.3778   -3.0348    4.0107 H         1 ACP         0.0365
@<TRIPOS>BOND
     1    1    2 2
     2    1    3 1
     3    1    4 1
     4    1    8 1
     5    3   32 1
     6    4   33 1
     7    5    6 2
     8    5    7 1
     9    5    8 1
    10    5   12 1
    11    8   34 1
    12    8   35 1
    13    9   10 2
    14    9   11 1
    15    9   12 1
    16    9   13 1
    17   13   14 1
    18   14   15 1
    19   14   36 1
    20   14   37 1
    21   15   16 1
    22   15   17 1
    23   15   38 1
    24   16   21 1
    25   17   18 1
    26   17   19 1
    27   17   39 1
    28   18   40 1
    29   19   20 1
    30   19   21 1
    31   19   41 1
    32   20   42 1
    33   21   22 1
    34   21   43 1
    35   22   23 ar
    36   22   31 ar
    37   23   24 ar
    38   23   44 1
    39   24   25 ar
    40   25   26 ar
    41   25   31 ar
    42   26   27 1
    43   26   28 ar
    44   27   45 1
    45   27   46 1
    46   28   29 ar
    47   29   30 ar
    48   29   47 1
    49   30   31 ar
@<TRIPOS>SUBSTRUCTURE
     1 ACP         1 GROUP 0 A     ****
@<TRIPOS>MOLECULE
[[5-(6-aminopurin-9-yl)-3,4-dihydroxy-tetrahydrofuran-2-yl]methoxy-oxido-phosphoryl]oxy-(phosphonomethyl)phosphinate
   47    49     1     0     0
SMALL
USER_CHARGES

@<TRIPOS>ATOM
      1 PG          7.6167    0.0854    3.7185 P.3       1 ACP         1.6478
      2 O1G         6.3745   -0.4986    4.3211 O.2       1 ACP        -0.9103
      3 O2G         7.8011   -0.1619    2.1326 O.3       1 ACP        -0.7989
      4 O3G         9.0070   -0.4427    4.3491 O.3       1 ACP        -0.7989
      5 PB          6.5042    3.0495    3.1650 P.3       1 ACP         1.4947
      6 O1B         6.9600    4.4500    3.5035 O.co2     1 ACP        -0.8554
      7 O2B         5.1349    2.5332    3.5418 O.co2     1 ACP        -0.8554
      8 C3B         7.7489    1.8808    3.8761 C.3       1 ACP        -0.6550
      9 PA          6.2485    3.4955    0.2424 P.3       1 ACP         1.5921
     10 O1A         6.7225    2.7149   -0.9645 O.co2     1 ACP        -0.8561
     11 O2A         6.5390    4.9755    0.3658 O.co2     1 ACP        -0.8561
     12 O3A         6.7934    2.7484    1.5887 O.3       1 ACP        -0.8166
     13 O5'         4.6404    3.2702    0.4379 O.3       1 ACP        -0.5737
     14 C5'         4.0922    1.9801    0.2227 C.3       1 ACP         0.2197
     15 C4'         2.5944    2.0310    0.4653 C.3       1 ACP         0.0944
     16 O4'         1.9327    2.5740   -0.6889 O.3       1 ACP        -0.4017
     17 C3'         1.9685    0.6634    0.6767 C.3       1 ACP         0.0859
     18 O3'         2.1425    0.1975    1.9977 O.3       1 ACP        -0.5941
     19 C2'         0.5176    0.9128    0.3099 C.3       1 ACP         0.0924
     20 O2'        -0.2103    1.4454    1.4152 O.3       1 ACP        -0.5928
     21 C1'         0.6219    1.9765   -0.7844 C.3       1 ACP         0.3967
     22 N9          0.4237    1.4496   -2.1357 N.pl3     1 ACP        -0.6763
     23 C8          1.4026    0.9717   -2.9660 C.ar      1 ACP         0.5586
     24 N7          0.9183    0.5619   -4.1197 N.2       1 ACP        -0.5795
     25 C5         -0.4330    0.7845   -4.0331 C.ar      1 ACP        -0.2116
     26 C6         -1.4794    0.5615   -4.9225 C.ar      1 ACP         0.7185
     27 N6         -1.2378    0.0044   -6.1899 N.pl3     1 ACP        -0.9442
     28 N1         -2.7406    0.8885   -4.5512 N.ar      1 ACP        -0.8040
     29 C2         -2.9113    1.4216   -3.3172 C.ar      1 ACP         0.6560
     30 N3         -1.9824    1.6843   -2.3721 N.ar      1 ACP        -0.7058
     31 C4         -0.7613    1.3370   -2.8054 C.ar      1 ACP         0.5729
     32 HOG2        7.8502   -1.0825    1.7979 H         1 ACP         0.4440
     33 HOG3        9.2147   -1.4003    4.3064 H         1 ACP         0.4440
     34 H3B1        7.7968    2.1166    4.9452 H         1 ACP         0.1084
     35 H3B2        8.7127    2.1697    3.4418 H         1 ACP         0.1084
     36 H5'1        4.3030    1.6732   -0.8066 H         1 ACP         0.0281
     37 H5'2        4.5679    1.2741    0.9106 H         1 ACP         0.0281
     38 H4'         2.3751    2.7029    1.3156 H         1 ACP         0.1082
     39 H3'         2.4336   -0.1217   -0.0015 H         1 ACP         0.0650
     40 HO3'        3.0987    0.1465    2.1461 H         1 ACP         0.4300
     41 H2'         0.0316    0.0155   -0.0339 H         1 ACP         0.0785
     42 HO2'       -1.1270    1.5823    1.1180 H         1 ACP         0.4275
     43 H1'        -0.1474    2.7798   -0.6651 H         1 ACP         0.1009
     44 H8          2.4442    0.9470   -2.6763 H         1 ACP         0.1067
     45 HN61       -0.2955   -0.1901   -6.4713 H         1 ACP         0.4213
     46 HN62       -1.9987   -0.1045   -6.8334 H         1 ACP         0.4213
     47 H2         -3.9335    1.6716   -3.0534 H         1 ACP         0.0365
@<TRIPOS>BOND
     1    1    2 2
     2    1    3 1
     3    1    4 1
     4    1    8 1
     5    3   32 1
     6    4   33 1
     7    5    6 2
     8    5    7 1
     9    5    8 1
    10    5   12 1
    11    8   34 1
    12    8   35 1
    13    9   10 2
    14    9   11 1
    15    9   12 1
    16    9   13 1
    17   13   14 1
    18   14   15 1
    19   14   36 1
    20   14   37 1
    21   15   16 1
    22   15   17 1
    23   15   38 1
    24   16   21 1
    25   17   18 1
    26   17   19 1
    27   17   39 1
    28   18   40 1
    29   19   20 1
    30   19   21 1
    31   19   41 1
    32   20   42 1
    33   21   22 1
    34   21   43 1
    35   22   23 ar
    36   22   31 ar
    37   23   24 ar
    38   23   44 1
    39   24   25 ar
    40   25   26 ar
    41   25   31 ar
    42   26   27 1
    43   26   28 ar
    44   27   45 1
    45   27   46 1
    46   28   29 ar
    47   29   30 ar
    48   29   47 1
    49   30   31 ar
@<TRIPOS>SUBSTRUCTURE
     1 ACP         1 GROUP 0 A     ****
@<TRIPOS>MOLECULE
[[5-(6-aminopurin-9-yl)-3,4-dihydroxy-tetrahydrofuran-2-yl]methoxy-oxido-phosphoryl]oxy-(phosphonomethyl)phosphinate
   47    49     1     0     0
SMALL
USER_CHARGES

@<TRIPOS>ATOM
      1 PG          1.9738   -0.6218   -4.5186 P.3       1 ACP         1.6478
      2 O1G         1.6613    0.1973   -3.3025 O.2       1 ACP        -0.9103
      3 O2G         1.4149   -2.1375   -4.4968 O.3       1 ACP        -0.7989
      4 O3G         3.5451   -0.8014   -4.8480 O.3       1 ACP        -0.7989
      5 PB         -0.5052    0.3059   -6.3417 P.3       1 ACP         1.4947
      6 O1B        -1.1785   -1.0403   -6.2082 O.co2     1 ACP        -0.8554
      7 O2B        -0.6488    1.1609   -7.5794 O.co2     1 ACP        -0.8554
      8 C3B         1.3038    0.0448   -6.0589 C.3       1 ACP        -0.6550
      9 PA         -2.2218    1.7171   -4.3750 P.3       1 ACP         1.5921
     10 O1A        -3.0049    0.5102   -3.9053 O.co2     1 ACP        -0.8561
     11 O2A        -2.8420    2.7148   -5.3289 O.co2     1 ACP        -0.8561
     12 O3A        -0.8096    1.2016   -5.0135 O.3       1 ACP        -0.8166
     13 O5'        -1.6520    2.5338   -3.0775 O.3       1 ACP        -0.5737
     14 C5'        -0.7794    1.8744   -2.1748 C.3       1 ACP         0.2197
     15 C4'        -0.9699    2.4597   -0.7819 C.3       1 ACP         0.0944
     16 O4'        -2.1475    1.8640   -0.2014 O.3       1 ACP        -0.4017
     17 C3'         0.1697    2.1347    0.1695 C.3       1 ACP         0.0859
     18 O3'         0.1809    3.0982    1.2223 O.3       1 ACP        -0.5941
     19 C2'        -0.2543    0.7880    0.7187 C.3       1 ACP         0.0924
     20 O2'         0.3606    0.4944    1.9582 O.3       1 ACP        -0.5928
     21 C1'        -1.7682    0.9516    0.8548 C.3       1 ACP         0.3967
     22 N9         -2.5926   -0.2553    0.7436 N.pl3     1 ACP        -0.6763
     23 C8         -2.6465   -1.0979   -0.3350 C.ar      1 ACP         0.5586
     24 N7         -3.4765   -2.1012   -0.1400 N.2       1 ACP        -0.5795
     25 C5         -3.9826   -1.8994    1.1194 C.ar      1 ACP        -0.2116
     26 C6         -4.8981   -2.6116    1.8877 C.ar      1 ACP         0.7185
     27 N6         -5.4931   -3.7842    1.3916 N.pl3     1 ACP        -0.9442
     28 N1         -5.2111   -2.1602    3.1262 N.ar      1 ACP        -0.8040
     29 C2         -4.6051   -1.0248    3.5500 C.ar      1 ACP         0.6560
     30 N3         -3.7075   -0.2510    2.9016 N.ar      1 ACP        -0.7058
     31 C4         -3.4448   -0.7551    1.6866 C.ar      1 ACP         0.5729
     32 HOG2        1.7133   -2.7437   -3.7858 H         1 ACP         0.4440
     33 HOG3        4.1238   -1.2315   -4.1831 H         1 ACP         0.4440
     34 H3B1        1.7720    1.0209   -6.2284 H         1 ACP         0.1084
     35 H3B2        1.6405   -0.6155   -6.8662 H         1 ACP         0.1084
     36 H5'1       -1.0116    0.8048   -2.1755 H         1 ACP         0.0281
     37 H5'2        0.2522    2.0163   -2.5121 H         1 ACP         0.0281
     38 H4'        -1.1469    3.5409   -0.8522 H         1 ACP         0.1082
     39 H3'         1.1601    2.1310   -0.2934 H         1 ACP         0.0650
     40 HO3'        0.3098    3.9616    0.8017 H         1 ACP         0.4300
     41 H2'        -0.0024   -0.0091    0.0062 H         1 ACP         0.0785
     42 HO2'        0.0384   -0.3797    2.2403 H         1 ACP         0.4275
     43 H1'        -2.0584    1.4255    1.8301 H         1 ACP         0.1009
     44 H8         -2.0609   -0.9301   -1.2286 H         1 ACP         0.1067
     45 HN61       -5.2894   -4.0827    0.4566 H         1 ACP         0.4213
     46 HN62       -6.1852   -4.2564    1.9420 H         1 ACP         0.4213
     47 H2         -4.8793   -0.6924    4.5457 H         1 ACP         0.0365
@<TRIPOS>BOND
     1    1    2 2
     2    1    3 1
     3    1    4 1
     4    1    8 1
     5    3   32 1
     6    4   33 1
     7    5    6 2
     8    5    7 1
     9    5    8 1
    10    5   12 1
    11    8   34 1
    12    8   35 1
    13    9   10 2
    14    9   11 1
    15    9   12 1
    16    9   13 1
    17   13   14 1
    18   14   15 1
    19   14   36 1
    20   14   37 1
    21   15   16 1
    22   15   17 1
    23   15   38 1
    24   16   21 1
    25   17   18 1
    26   17   19 1
    27   17   39 1
    28   18   40 1
    29   19   20 1
    30   19   21 1
    31   19   41 1
    32   20   42 1
    33   21   22 1
    34   21   43 1
    35   22   23 ar
    36   22   31 ar
    37   23   24 ar
    38   23   44 1
    39   24   25 ar
    40   25   26 ar
    41   25   31 ar
    42   26   27 1
    43   26   28 ar
    44   27   45 1
    45   27   46 1
    46   28   29 ar
    47   29   30 ar
    48   29   47 1
    49   30   31 ar
@<TRIPOS>SUBSTRUCTURE
     1 ACP         1 GROUP 0 A     ****
@<TRIPOS>MOLECULE
[[5-(6-aminopurin-9-yl)-3,4-dihydroxy-tetrahydrofuran-2-yl]methoxy-oxido-phosphoryl]oxy-(phosphonomethyl)phosphinate
   47    49     1     0     0
SMALL
USER_CHARGES

@<TRIPOS>ATOM
      1 PG          6.9990    0.1095    3.2200 P.3       1 ACP         1.6478
      2 O1G         7.4048    1.4212    2.6183 O.2       1 ACP        -0.9103
      3 O2G         5.5033    0.0583    3.8285 O.3       1 ACP        -0.7989
      4 O3G         7.9229   -0.4086    4.4397 O.3       1 ACP        -0.7989
      5 PB          5.9944   -1.3342    0.5299 P.3       1 ACP         1.4947
      6 O1B         4.5477   -1.2468    0.9577 O.co2     1 ACP        -0.8554
      7 O2B         6.5169   -2.4666   -0.3234 O.co2     1 ACP        -0.8554
      8 C3B         7.0244   -1.2802    2.0652 C.3       1 ACP        -0.6550
      9 PA          5.8978    0.9307   -1.3850 P.3       1 ACP         1.5921
     10 O1A         5.9190    0.0229   -2.5958 O.co2     1 ACP        -0.8561
     11 O2A         6.5864    2.2777   -1.4195 O.co2     1 ACP        -0.8561
     12 O3A         6.4633    0.0945   -0.1011 O.3       1 ACP        -0.8166
     13 O5'         4.3514    1.1573   -0.9028 O.3       1 ACP        -0.5737
     14 C5'         4.0922    1.9801    0.2227 C.3       1 ACP         0.2197
     15 C4'         2.5944    2.0310    0.4653 C.3       1 ACP         0.0944
     16 O4'         1.9327    2.5740   -0.6889 O.3       1 ACP        -0.4017
     17 C3'         1.9685    0.6634    0.6767 C.3       1 ACP         0.0859
     18 O3'         2.1425    0.1975    1.9977 O.3       1 ACP        -0.5941
     19 C2'         0.5176    0.9128    0.3099 C.3       1 ACP         0.0924
     20 O2'        -0.2103    1.4454    1.4152 O.3       1 ACP        -0.5928
     21 C1'         0.6219    1.9765   -0.7844 C.3       1 ACP         0.3967
     22 N9          0.4237    1.4496   -2.1357 N.pl3     1 ACP        -0.6763
     23 C8          1.4026    0.9717   -2.9660 C.ar      1 ACP         0.5586
     24 N7          0.9183    0.5619   -4.1197 N.2       1 ACP        -0.5795
     25 C5         -0.4330    0.7845   -4.0331 C.ar      1 ACP        -0.2116
     26 C6         -1.4794    0.5615   -4.9225 C.ar      1 ACP         0.7185
     27 N6         -1.2378    0.0044   -6.1899 N.pl3     1 ACP        -0.9442
     28 N1         -2.7406    0.8885   -4.5512 N.ar      1 ACP        -0.8040
     29 C2         -2.9113    1.4216   -3.3172 C.ar      1 ACP         0.6560
     30 N3         -1.9824    1.6843   -2.3721 N.ar      1 ACP        -0.7058
     31 C4         -0.7613    1.3370   -2.8054 C.ar      1 ACP         0.5729
     32 HOG2        5.2639    0.6744    4.5532 H         1 ACP         0.4440
     33 HOG3        8.0021    0.1462    5.2447 H         1 ACP         0.4440
     34 H3B1        8.0592   -1.4133    1.7301 H         1 ACP         0.1084
     35 H3B2        6.7561   -2.1760    2.6370 H         1 ACP         0.1084
     36 H5'1        4.6070    1.5616    1.0933 H         1 ACP         0.0281
     37 H5'2        4.4825    2.9835    0.0251 H         1 ACP         0.0281
     38 H4'         2.3751    2.7029    1.3156 H         1 ACP         0.1082
     39 H3'         2.4336   -0.1217   -0.0015 H         1 ACP         0.0650
     40 HO3'        1.7160   -0.6716    2.0397 H         1 ACP         0.4300
     41 H2'         0.0316    0.0155   -0.0339 H         1 ACP         0.0785
     42 HO2'       -0.1608    0.7921    2.1351 H         1 ACP         0.4275
     43 H1'        -0.1474    2.7798   -0.6651 H         1 ACP         0.1009
     44 H8          2.4442    0.9470   -2.6763 H         1 ACP         0.1067
     45 HN61       -0.2955   -0.1901   -6.4713 H         1 ACP         0.4213
     46 HN62       -1.9987   -0.1045   -6.8334 H         1 ACP         0.4213
     47 H2         -3.9335    1.6716   -3.0534 H         1 ACP         0.0365
@<TRIPOS>BOND
     1    1    2 2
     2    1    3 1
     3    1    4 1
     4    1    8 1
     5    3   32 1
     6    4   33 1
     7    5    6 2
     8    5    7 1
     9    5    8 1
    10    5   12 1
    11    8   34 1
    12    8   35 1
    13    9   10 2
    14    9   11 1
    15    9   12 1
    16    9   13 1
    17   13   14 1
    18   14   15 1
    19   14   36 1
    20   14   37 1
    21   15   16 1
    22   15   17 1
    23   15   38 1
    24   16   21 1
    25   17   18 1
    26   17   19 1
    27   17   39 1
    28   18   40 1
    29   19   20 1
    30   19   21 1
    31   19   41 1
    32   20   42 1
    33   21   22 1
    34   21   43 1
    35   22   23 ar
    36   22   31 ar
    37   23   24 ar
    38   23   44 1
    39   24   25 ar
    40   25   26 ar
    41   25   31 ar
    42   26   27 1
    43   26   28 ar
    44   27   45 1
    45   27   46 1
    46   28   29 ar
    47   29   30 ar
    48   29   47 1
    49   30   31 ar
@<TRIPOS>SUBSTRUCTURE
     1 ACP         1 GROUP 0 A     ****
@<TRIPOS>MOLECULE
[[5-(6-aminopurin-9-yl)-3,4-dihydroxy-tetrahydrofuran-2-yl]methoxy-oxido-phosphoryl]oxy-(phosphonomethyl)phosphinate
   47    49     1     0     0
SMALL
USER_CHARGES

@<TRIPOS>ATOM
      1 PG          6.6348    5.8224    2.9084 P.3       1 ACP         1.6478
      2 O1G         5.2949    5.1502    2.9261 O.2       1 ACP        -0.9103
      3 O2G         7.5468    5.5867    4.2210 O.3       1 ACP        -0.7989
      4 O3G         6.6014    7.4300    2.7532 O.3       1 ACP        -0.7989
      5 PB          8.2634    3.5500    1.3229 P.3       1 ACP         1.4947
      6 O1B         9.0248    3.1509    2.5656 O.co2     1 ACP        -0.8554
      7 O2B         8.8642    3.4468   -0.0599 O.co2     1 ACP        -0.8554
      8 C3B         7.7131    5.3004    1.5555 C.3       1 ACP        -0.6550
      9 PA          6.3565    1.2769    1.3737 P.3       1 ACP         1.5921
     10 O1A         6.7988    0.6870    2.6954 O.co2     1 ACP        -0.8561
     11 O2A         6.7715    0.6371    0.0667 O.co2     1 ACP        -0.8561
     12 O3A         6.7901    2.8512    1.3385 O.3       1 ACP        -0.8166
     13 O5'         4.7294    1.4425    1.3700 O.3       1 ACP        -0.5737
     14 C5'         4.0922    1.9801    0.2227 C.3       1 ACP         0.2197
     15 C4'         2.5944    2.0310    0.4653 C.3       1 ACP         0.0944
     16 O4'         1.9327    2.5740   -0.6889 O.3       1 ACP        -0.4017
     17 C3'         1.9685    0.6634    0.6767 C.3       1 ACP         0.0859
     18 O3'         2.1425    0.1975    1.9977 O.3       1 ACP        -0.5941
     19 C2'         0.5176    0.9128    0.3099 C.3       1 ACP         0.0924
     20 O2'        -0.2103    1.4454    1.4152 O.3       1 ACP        -0.5928
     21 C1'         0.6219    1.9765   -0.7844 C.3       1 ACP         0.3967
     22 N9          0.4237    1.4496   -2.1357 N.pl3     1 ACP        -0.6763
     23 C8          1.4026    0.9717   -2.9660 C.ar      1 ACP         0.5586
     24 N7          0.9183    0.5619   -4.1197 N.2       1 ACP        -0.5795
     25 C5         -0.4330    0.7845   -4.0331 C.ar      1 ACP        -0.2116
     26 C6         -1.4794    0.5615   -4.9225 C.ar      1 ACP         0.7185
     27 N6         -1.2378    0.0044   -6.1899 N.pl3     1 ACP        -0.9442
     28 N1         -2.7406    0.8885   -4.5512 N.ar      1 ACP        -0.8040
     29 C2         -2.9113    1.4216   -3.3172 C.ar      1 ACP         0.6560
     30 N3         -1.9824    1.6843   -2.3721 N.ar      1 ACP        -0.7058
     31 C4         -0.7613    1.3370   -2.8054 C.ar      1 ACP         0.5729
     32 HOG2        7.2072    5.8777    5.0940 H         1 ACP         0.4440
     33 HOG3        6.1371    7.9635    3.4328 H         1 ACP         0.4440
     34 H3B1        7.2253    5.5829    0.6157 H         1 ACP         0.1084
     35 H3B2        8.6307    5.8950    1.6304 H         1 ACP         0.1084
     36 H5'1        4.4845    2.9853    0.0383 H         1 ACP         0.0281
     37 H5'2        4.3193    1.3444   -0.6389 H         1 ACP         0.0281
     38 H4'         2.3751    2.7029    1.3156 H         1 ACP         0.1082
     39 H3'         2.4336   -0.1217   -0.0015 H         1 ACP         0.0650
     40 HO3'        3.0987    0.1465    2.1461 H         1 ACP         0.4300
     41 H2'         0.0316    0.0155   -0.0339 H         1 ACP         0.0785
     42 HO2'       -0.1608    0.7921    2.1351 H         1 ACP         0.4275
     43 H1'        -0.1474    2.7798   -0.6651 H         1 ACP         0.1009
     44 H8          2.4442    0.9470   -2.6763 H         1 ACP         0.1067
     45 HN61       -0.2955   -0.1901   -6.4713 H         1 ACP         0.4213
     46 HN62       -1.9987   -0.1045   -6.8334 H         1 ACP         0.4213
     47 H2         -3.9335    1.6716   -3.0534 H         1 ACP         0.0365
@<TRIPOS>BOND
     1    1    2 2
     2    1    3 1
     3    1    4 1
     4    1    8 1
     5    3   32 1
     6    4   33 1
     7    5    6 2
     8    5    7 1
     9    5    8 1
    10    5   12 1
    11    8   34 1
    12    8   35 1
    13    9   10 2
    14    9   11 1
    15    9   12 1
    16    9   13 1
    17   13   14 1
    18   14   15 1
    19   14   36 1
    20   14   37 1
    21   15   16 1
    22   15   17 1
    23   15   38 1
    24   16   21 1
    25   17   18 1
    26   17   19 1
    27   17   39 1
    28   18   40 1
    29   19   20 1
    30   19   21 1
    31   19   41 1
    32   20   42 1
    33   21   22 1
    34   21   43 1
    35   22   23 ar
    36   22   31 ar
    37   23   24 ar
    38   23   44 1
    39   24   25 ar
    40   25   26 ar
    41   25   31 ar
    42   26   27 1
    43   26   28 ar
    44   27   45 1
    45   27   46 1
    46   28   29 ar
    47   29   30 ar
    48   29   47 1
    49   30   31 ar
@<TRIPOS>SUBSTRUCTURE
     1 ACP         1 GROUP 0 A     ****
@<TRIPOS>MOLECULE
[[5-(6-aminopurin-9-yl)-3,4-dihydroxy-tetrahydrofuran-2-yl]methoxy-oxido-phosphoryl]oxy-(phosphonomethyl)phosphinate
   47    49     1     0     0
SMALL
USER_CHARGES

@<TRIPOS>ATOM
      1 PG         -4.7508    6.5318   -0.6338 P.3       1 ACP         1.6478
      2 O1G        -3.8058    6.3122   -1.7766 O.2       1 ACP        -0.9103
      3 O2G        -6.2905    6.1350   -0.9205 O.3       1 ACP        -0.7989
      4 O3G        -4.8448    8.0517   -0.0947 O.3       1 ACP        -0.7989
      5 PB         -2.7500    5.7727    1.7642 P.3       1 ACP         1.4947
      6 O1B        -2.7933    4.8278    2.9426 O.co2     1 ACP        -0.8554
      7 O2B        -2.4894    7.2525    1.9253 O.co2     1 ACP        -0.8554
      8 C3B        -4.3509    5.5905    0.8560 C.3       1 ACP        -0.6550
      9 PA         -0.1841    4.7788    0.6530 P.3       1 ACP         1.5921
     10 O1A         0.5902    5.9920    1.1214 O.co2     1 ACP        -0.8561
     11 O2A         0.1754    4.0890   -0.6450 O.co2     1 ACP        -0.8561
     12 O3A        -1.7713    5.1620    0.6117 O.3       1 ACP        -0.8166
     13 O5'        -0.2059    3.6558    1.8419 O.3       1 ACP        -0.5737
     14 C5'        -0.8811    2.4285    1.6206 C.3       1 ACP         0.2197
     15 C4'        -0.1994    1.3333    2.4288 C.3       1 ACP         0.0944
     16 O4'        -1.1285    0.2356    2.5840 O.3       1 ACP        -0.4017
     17 C3'         1.0324    0.7610    1.7344 C.3       1 ACP         0.0859
     18 O3'         1.9175    0.2377    2.7247 O.3       1 ACP        -0.5941
     19 C2'         0.4468   -0.3802    0.9263 C.3       1 ACP         0.0924
     20 O2'         1.3993   -1.3703    0.5961 O.3       1 ACP        -0.5928
     21 C1'        -0.6159   -0.9100    1.8769 C.3       1 ACP         0.3967
     22 N9         -1.7127   -1.6108    1.2130 N.pl3     1 ACP        -0.6763
     23 C8         -1.7712   -2.9546    0.9544 C.ar      1 ACP         0.5586
     24 N7         -2.8883   -3.2948    0.3462 N.2       1 ACP        -0.5795
     25 C5         -3.5834   -2.1202    0.2043 C.ar      1 ACP        -0.2116
     26 C6         -4.8225   -1.8251   -0.3554 C.ar      1 ACP         0.7185
     27 N6         -5.6154   -2.8394   -0.9189 N.pl3     1 ACP        -0.9442
     28 N1         -5.2589   -0.5425   -0.3507 N.ar      1 ACP        -0.8040
     29 C2         -4.4510    0.3913    0.2069 C.ar      1 ACP         0.6560
     30 N3         -3.2368    0.2296    0.7767 N.ar      1 ACP        -0.7058
     31 C4         -2.8684   -1.0596    0.7376 C.ar      1 ACP         0.5729
     32 HOG2       -6.7709    6.5885   -1.6455 H         1 ACP         0.4440
     33 HOG3       -5.1346    8.7575   -0.7111 H         1 ACP         0.4440
     34 H3B1       -5.1335    5.7934    1.5958 H         1 ACP         0.1084
     35 H3B2       -4.4268    4.5291    0.5936 H         1 ACP         0.1084
     36 H5'1       -1.9255    2.5383    1.9294 H         1 ACP         0.0281
     37 H5'2       -0.8472    2.1934    0.5521 H         1 ACP         0.0281
     38 H4'         0.0403    1.7078    3.4343 H         1 ACP         0.1082
     39 H3'         1.5906    1.4859    1.1353 H         1 ACP         0.0650
     40 HO3'        2.6839   -0.1150    2.2479 H         1 ACP         0.4300
     41 H2'        -0.0017    0.0018    0.0005 H         1 ACP         0.0785
     42 HO2'        0.9369   -2.0558    0.0825 H         1 ACP         0.4275
     43 H1'        -0.1998   -1.6319    2.6178 H         1 ACP         0.1009
     44 H8         -0.9745   -3.6312    1.2318 H         1 ACP         0.1067
     45 HN61       -5.2619   -3.7766   -0.9586 H         1 ACP         0.4213
     46 HN62       -6.4834   -2.5990   -1.3590 H         1 ACP         0.4213
     47 H2         -4.8317    1.4071    0.1930 H         1 ACP         0.0365
@<TRIPOS>BOND
     1    1    2 2
     2    1    3 1
     3    1    4 1
     4    1    8 1
     5    3   32 1
     6    4   33 1
     7    5    6 2
     8    5    7 1
     9    5    8 1
    10    5   12 1
    11    8   34 1
    12    8   35 1
    13    9   10 2
    14    9   11 1
    15    9   12 1
    16    9   13 1
    17   13   14 1
    18   14   15 1
    19   14   36 1
    20   14   37 1
    21   15   16 1
    22   15   17 1
    23   15   38 1
    24   16   21 1
    25   17   18 1
    26   17   19 1
    27   17   39 1
    28   18   40 1
    29   19   20 1
    30   19   21 1
    31   19   41 1
    32   20   42 1
    33   21   22 1
    34   21   43 1
    35   22   23 ar
    36   22   31 ar
    37   23   24 ar
    38   23   44 1
    39   24   25 ar
    40   25   26 ar
    41   25   31 ar
    42   26   27 1
    43   26   28 ar
    44   27   45 1
    45   27   46 1
    46   28   29 ar
    47   29   30 ar
    48   29   47 1
    49   30   31 ar
@<TRIPOS>SUBSTRUCTURE
     1 ACP         1 GROUP 0 A     ****
@<TRIPOS>MOLECULE
[[5-(6-aminopurin-9-yl)-3,4-dihydroxy-tetrahydrofuran-2-yl]methoxy-oxido-phosphoryl]oxy-(phosphonomethyl)phosphinate
   47    49     1     0     0
SMALL
USER_CHARGES

@<TRIPOS>ATOM
      1 PG         -2.9394    7.5317   -0.1657 P.3       1 ACP         1.6478
      2 O1G        -4.1220    7.6919   -1.0729 O.2       1 ACP        -0.9103
      3 O2G        -2.0433    8.8590    0.0474 O.3       1 ACP        -0.7989
      4 O3G        -1.8631    6.4163   -0.6209 O.3       1 ACP        -0.7989
      5 PB         -2.0832    6.7718    2.8375 P.3       1 ACP         1.4947
      6 O1B        -2.8172    6.3715    4.0964 O.co2     1 ACP        -0.8554
      7 O2B        -1.1380    7.9501    2.7944 O.co2     1 ACP        -0.8554
      8 C3B        -3.3558    7.0375    1.5218 C.3       1 ACP        -0.6550
      9 PA          0.0332    4.7082    2.5761 P.3       1 ACP         1.5921
     10 O1A        -0.1148    4.1078    3.9574 O.co2     1 ACP        -0.8561
     11 O2A         1.1835    5.6391    2.2595 O.co2     1 ACP        -0.8561
     12 O3A        -1.3627    5.4617    2.1868 O.3       1 ACP        -0.8166
     13 O5'         0.0182    3.5132    1.4596 O.3       1 ACP        -0.5737
     14 C5'        -0.8811    2.4285    1.6206 C.3       1 ACP         0.2197
     15 C4'        -0.1994    1.3333    2.4288 C.3       1 ACP         0.0944
     16 O4'        -1.1285    0.2356    2.5840 O.3       1 ACP        -0.4017
     17 C3'         1.0324    0.7610    1.7344 C.3       1 ACP         0.0859
     18 O3'         1.9175    0.2377    2.7247 O.3       1 ACP        -0.5941
     19 C2'         0.4468   -0.3802    0.9263 C.3       1 ACP         0.0924
     20 O2'         1.3993   -1.3703    0.5961 O.3       1 ACP        -0.5928
     21 C1'        -0.6159   -0.9100    1.8769 C.3       1 ACP         0.3967
     22 N9         -1.7127   -1.6108    1.2130 N.pl3     1 ACP        -0.6763
     23 C8         -1.7712   -2.9546    0.9544 C.ar      1 ACP         0.5586
     24 N7         -2.8883   -3.2948    0.3462 N.2       1 ACP        -0.5795
     25 C5         -3.5834   -2.1202    0.2043 C.ar      1 ACP        -0.2116
     26 C6         -4.8225   -1.8251   -0.3554 C.ar      1 ACP         0.7185
     27 N6         -5.6154   -2.8394   -0.9189 N.pl3     1 ACP        -0.9442
     28 N1         -5.2589   -0.5425   -0.3507 N.ar      1 ACP        -0.8040
     29 C2         -4.4510    0.3913    0.2069 C.ar      1 ACP         0.6560
     30 N3         -3.2368    0.2296    0.7767 N.ar      1 ACP        -0.7058
     31 C4         -2.8684   -1.0596    0.7376 C.ar      1 ACP         0.5729
     32 HOG2       -1.6206    9.2772   -0.7327 H         1 ACP         0.4440
     33 HOG3       -1.4170    6.5128   -1.4890 H         1 ACP         0.4440
     34 H3B1       -4.0447    7.7877    1.9260 H         1 ACP         0.1084
     35 H3B2       -3.9137    6.0968    1.4511 H         1 ACP         0.1084
     36 H5'1       -1.7769    2.7852    2.1386 H         1 ACP         0.0281
     37 H5'2       -1.1652    2.0544    0.6320 H         1 ACP         0.0281
     38 H4'         0.0403    1.7078    3.4343 H         1 ACP         0.1082
     39 H3'         1.5906    1.4859    1.1353 H         1 ACP         0.0650
     40 HO3'        2.6839   -0.1150    2.2479 H         1 ACP         0.4300
     41 H2'        -0.0017    0.0018    0.0005 H         1 ACP         0.0785
     42 HO2'        2.0953   -0.9375    0.0709 H         1 ACP         0.4275
     43 H1'        -0.1998   -1.6319    2.6178 H         1 ACP         0.1009
     44 H8         -0.9745   -3.6312    1.2318 H         1 ACP         0.1067
     45 HN61       -5.2619   -3.7766   -0.9586 H         1 ACP         0.4213
     46 HN62       -6.4834   -2.5990   -1.3590 H         1 ACP         0.4213
     47 H2         -4.8317    1.4071    0.1930 H         1 ACP         0.0365
@<TRIPOS>BOND
     1    1    2 2
     2    1    3 1
     3    1    4 1
     4    1    8 1
     5    3   32 1
     6    4   33 1
     7    5    6 2
     8    5    7 1
     9    5    8 1
    10    5   12 1
    11    8   34 1
    12    8   35 1
    13    9   10 2
    14    9   11 1
    15    9   12 1
    16    9   13 1
    17   13   14 1
    18   14   15 1
    19   14   36 1
    20   14   37 1
    21   15   16 1
    22   15   17 1
    23   15   38 1
    24   16   21 1
    25   17   18 1
    26   17   19 1
    27   17   39 1
    28   18   40 1
    29   19   20 1
    30   19   21 1
    31   19   41 1
    32   20   42 1
    33   21   22 1
    34   21   43 1
    35   22   23 ar
    36   22   31 ar
    37   23   24 ar
    38   23   44 1
    39   24   25 ar
    40   25   26 ar
    41   25   31 ar
    42   26   27 1
    43   26   28 ar
    44   27   45 1
    45   27   46 1
    46   28   29 ar
    47   29   30 ar
    48   29   47 1
    49   30   31 ar
@<TRIPOS>SUBSTRUCTURE
     1 ACP         1 GROUP 0 A     ****
@<TRIPOS>MOLECULE
[[5-(6-aminopurin-9-yl)-3,4-dihydroxy-tetrahydrofuran-2-yl]methoxy-oxido-phosphoryl]oxy-(phosphonomethyl)phosphinate
   47    49     1     0     0
SMALL
USER_CHARGES

@<TRIPOS>ATOM
      1 PG          8.6761    1.0046    2.3883 P.3       1 ACP         1.6478
      2 O1G         8.8702   -0.2484    3.1881 O.2       1 ACP        -0.9103
      3 O2G         9.7929    2.1505    2.6117 O.3       1 ACP        -0.7989
      4 O3G         7.2815    1.7794    2.6420 O.3       1 ACP        -0.7989
      5 PB          8.4714    2.1372   -0.6126 P.3       1 ACP         1.4947
      6 O1B         8.5419    1.5346   -1.9966 O.co2     1 ACP        -0.8554
      7 O2B         9.3766    3.2659   -0.1765 O.co2     1 ACP        -0.8554
      8 C3B         8.6895    0.7563    0.5984 C.3       1 ACP        -0.6550
      9 PA          5.8654    3.5047   -0.9930 P.3       1 ACP         1.5921
     10 O1A         5.5593    2.9518   -2.3681 O.co2     1 ACP        -0.8561
     11 O2A         6.3578    4.9258   -0.8257 O.co2     1 ACP        -0.8561
     12 O3A         6.9226    2.5019   -0.2553 O.3       1 ACP        -0.8166
     13 O5'         4.5669    3.2941   -0.0211 O.3       1 ACP        -0.5737
     14 C5'         4.0922    1.9801    0.2227 C.3       1 ACP         0.2197
     15 C4'         2.5944    2.0310    0.4653 C.3       1 ACP         0.0944
     16 O4'         1.9327    2.5740   -0.6889 O.3       1 ACP        -0.4017
     17 C3'         1.9685    0.6634    0.6767 C.3       1 ACP         0.0859
     18 O3'         2.1425    0.1975    1.9977 O.3       1 ACP        -0.5941
     19 C2'         0.5176    0.9128    0.3099 C.3       1 ACP         0.0924
     20 O2'        -0.2103    1.4454    1.4152 O.3       1 ACP        -0.5928
     21 C1'         0.6219    1.9765   -0.7844 C.3       1 ACP         0.3967
     22 N9          0.4237    1.4496   -2.1357 N.pl3     1 ACP        -0.6763
     23 C8          1.4026    0.9717   -2.9660 C.ar      1 ACP         0.5586
     24 N7          0.9183    0.5619   -4.1197 N.2       1 ACP        -0.5795
     25 C5         -0.4330    0.7845   -4.0331 C.ar      1 ACP        -0.2116
     26 C6         -1.4794    0.5615   -4.9225 C.ar      1 ACP         0.7185
     27 N6         -1.2378    0.0044   -6.1899 N.pl3     1 ACP        -0.9442
     28 N1         -2.7406    0.8885   -4.5512 N.ar      1 ACP        -0.8040
     29 C2         -2.9113    1.4216   -3.3172 C.ar      1 ACP         0.6560
     30 N3         -1.9824    1.6843   -2.3721 N.ar      1 ACP        -0.7058
     31 C4         -0.7613    1.3370   -2.8054 C.ar      1 ACP         0.5729
     32 HOG2        9.9174    2.5238    3.5101 H         1 ACP         0.4440
     33 HOG3        7.0754    2.1037    3.5444 H         1 ACP         0.4440
     34 H3B1        9.6429    0.2835    0.3370 H         1 ACP         0.1084
     35 H3B2        7.9002    0.0310    0.3703 H         1 ACP         0.1084
     36 H5'1        4.3181    1.3551   -0.6470 H         1 ACP         0.0281
     37 H5'2        4.6085    1.5740    1.0982 H         1 ACP         0.0281
     38 H4'         2.3751    2.7029    1.3156 H         1 ACP         0.1082
     39 H3'         2.4336   -0.1217   -0.0015 H         1 ACP         0.0650
     40 HO3'        1.7160   -0.6716    2.0397 H         1 ACP         0.4300
     41 H2'         0.0316    0.0155   -0.0339 H         1 ACP         0.0785
     42 HO2'       -0.1608    0.7921    2.1351 H         1 ACP         0.4275
     43 H1'        -0.1474    2.7798   -0.6651 H         1 ACP         0.1009
     44 H8          2.4442    0.9470   -2.6763 H         1 ACP         0.1067
     45 HN61       -0.2955   -0.1901   -6.4713 H         1 ACP         0.4213
     46 HN62       -1.9987   -0.1045   -6.8334 H         1 ACP         0.4213
     47 H2         -3.9335    1.6716   -3.0534 H         1 ACP         0.0365
@<TRIPOS>BOND
     1    1    2 2
     2    1    3 1
     3    1    4 1
     4    1    8 1
     5    3   32 1
     6    4   33 1
     7    5    6 2
     8    5    7 1
     9    5    8 1
    10    5   12 1
    11    8   34 1
    12    8   35 1
    13    9   10 2
    14    9   11 1
    15    9   12 1
    16    9   13 1
    17   13   14 1
    18   14   15 1
    19   14   36 1
    20   14   37 1
    21   15   16 1
    22   15   17 1
    23   15   38 1
    24   16   21 1
    25   17   18 1
    26   17   19 1
    27   17   39 1
    28   18   40 1
    29   19   20 1
    30   19   21 1
    31   19   41 1
    32   20   42 1
    33   21   22 1
    34   21   43 1
    35   22   23 ar
    36   22   31 ar
    37   23   24 ar
    38   23   44 1
    39   24   25 ar
    40   25   26 ar
    41   25   31 ar
    42   26   27 1
    43   26   28 ar
    44   27   45 1
    45   27   46 1
    46   28   29 ar
    47   29   30 ar
    48   29   47 1
    49   30   31 ar
@<TRIPOS>SUBSTRUCTURE
     1 ACP         1 GROUP 0 A     ****
@<TRIPOS>MOLECULE
[[5-(6-aminopurin-9-yl)-3,4-dihydroxy-tetrahydrofuran-2-yl]methoxy-oxido-phosphoryl]oxy-(phosphonomethyl)phosphinate
   47    49     1     0     0
SMALL
USER_CHARGES

@<TRIPOS>ATOM
      1 PG         -4.7859    6.1537   -1.5691 P.3       1 ACP         1.6478
      2 O1G        -3.3670    6.5975   -1.7617 O.2       1 ACP        -0.9103
      3 O2G        -5.4930    5.5059   -2.8694 O.3       1 ACP        -0.7989
      4 O3G        -5.8176    7.3099   -1.1126 O.3       1 ACP        -0.7989
      5 PB         -4.1905    3.2248   -0.3873 P.3       1 ACP         1.4947
      6 O1B        -4.6678    2.5557   -1.6555 O.co2     1 ACP        -0.8554
      7 O2B        -4.3400    2.5798    0.9711 O.co2     1 ACP        -0.8554
      8 C3B        -5.0045    4.8834   -0.3026 C.3       1 ACP        -0.6550
      9 PA         -1.2906    2.9169   -0.9367 P.3       1 ACP         1.5921
     10 O1A        -0.1214    3.8755   -0.8688 O.co2     1 ACP        -0.8561
     11 O2A        -1.5363    2.0878   -2.1785 O.co2     1 ACP        -0.8561
     12 O3A        -2.6568    3.7411   -0.5877 O.3       1 ACP        -0.8166
     13 O5'        -1.2434    1.9101    0.3513 O.3       1 ACP        -0.5737
     14 C5'        -0.8811    2.4285    1.6206 C.3       1 ACP         0.2197
     15 C4'        -0.1994    1.3333    2.4288 C.3       1 ACP         0.0944
     16 O4'        -1.1285    0.2356    2.5840 O.3       1 ACP        -0.4017
     17 C3'         1.0324    0.7610    1.7344 C.3       1 ACP         0.0859
     18 O3'         1.9175    0.2377    2.7247 O.3       1 ACP        -0.5941
     19 C2'         0.4468   -0.3802    0.9263 C.3       1 ACP         0.0924
     20 O2'         1.3993   -1.3703    0.5961 O.3       1 ACP        -0.5928
     21 C1'        -0.6159   -0.9100    1.8769 C.3       1 ACP         0.3967
     22 N9         -1.7127   -1.6108    1.2130 N.pl3     1 ACP        -0.6763
     23 C8         -2.8641   -1.0399    0.7392 C.ar      1 ACP         0.5586
     24 N7         -3.6659   -1.9257    0.1858 N.2       1 ACP        -0.5795
     25 C5         -3.0053   -3.1223    0.3069 C.ar      1 ACP        -0.2116
     26 C6         -3.3321   -4.4178   -0.0813 C.ar      1 ACP         0.7185
     27 N6         -4.5476   -4.6866   -0.7335 N.pl3     1 ACP        -0.9442
     28 N1         -2.4608   -5.4225    0.1773 N.ar      1 ACP        -0.8040
     29 C2         -1.3053   -5.1020    0.8081 C.ar      1 ACP         0.6560
     30 N3         -0.8788   -3.8921    1.2315 N.ar      1 ACP        -0.7058
     31 C4         -1.7870   -2.9477    0.9438 C.ar      1 ACP         0.5729
     32 HOG2       -5.5790    6.0474   -3.6827 H         1 ACP         0.4440
     33 HOG3       -5.9461    8.0890   -1.6946 H         1 ACP         0.4440
     34 H3B1       -4.6943    5.3148    0.6558 H         1 ACP         0.1084
     35 H3B2       -6.0800    4.6855   -0.2305 H         1 ACP         0.1084
     36 H5'1       -0.2035    3.2759    1.4765 H         1 ACP         0.0281
     37 H5'2       -1.7842    2.7761    2.1320 H         1 ACP         0.0281
     38 H4'         0.0403    1.7078    3.4343 H         1 ACP         0.1082
     39 H3'         1.5906    1.4859    1.1353 H         1 ACP         0.0650
     40 HO3'        2.6839   -0.1150    2.2479 H         1 ACP         0.4300
     41 H2'        -0.0017    0.0018    0.0005 H         1 ACP         0.0785
     42 HO2'        2.0953   -0.9375    0.0709 H         1 ACP         0.4275
     43 H1'        -0.1998   -1.6319    2.6178 H         1 ACP         0.1009
     44 H8         -3.0609    0.0200    0.8250 H         1 ACP         0.1067
     45 HN61       -5.2046   -3.9433   -0.8775 H         1 ACP         0.4213
     46 HN62       -4.7849   -5.6332   -0.9625 H         1 ACP         0.4213
     47 H2         -0.6318   -5.9307    0.9993 H         1 ACP         0.0365
@<TRIPOS>BOND
     1    1    2 2
     2    1    3 1
     3    1    4 1
     4    1    8 1
     5    3   32 1
     6    4   33 1
     7    5    6 2
     8    5    7 1
     9    5    8 1
    10    5   12 1
    11    8   34 1
    12    8   35 1
    13    9   10 2
    14    9   11 1
    15    9   12 1
    16    9   13 1
    17   13   14 1
    18   14   15 1
    19   14   36 1
    20   14   37 1
    21   15   16 1
    22   15   17 1
    23   15   38 1
    24   16   21 1
    25   17   18 1
    26   17   19 1
    27   17   39 1
    28   18   40 1
    29   19   20 1
    30   19   21 1
    31   19   41 1
    32   20   42 1
    33   21   22 1
    34   21   43 1
    35   22   23 ar
    36   22   31 ar
    37   23   24 ar
    38   23   44 1
    39   24   25 ar
    40   25   26 ar
    41   25   31 ar
    42   26   27 1
    43   26   28 ar
    44   27   45 1
    45   27   46 1
    46   28   29 ar
    47   29   30 ar
    48   29   47 1
    49   30   31 ar
@<TRIPOS>SUBSTRUCTURE
     1 ACP         1 GROUP 0 A     ****
@<TRIPOS>MOLECULE
[[5-(6-aminopurin-9-yl)-3,4-dihydroxy-tetrahydrofuran-2-yl]methoxy-oxido-phosphoryl]oxy-(phosphonomethyl)phosphinate
   47    49     1     0     0
SMALL
USER_CHARGES

@<TRIPOS>ATOM
      1 PG          8.6761    1.0046    2.3883 P.3       1 ACP         1.6478
      2 O1G         9.7422    1.9302    2.8924 O.2       1 ACP        -0.9103
      3 O2G         7.1573    1.4675    2.6867 O.3       1 ACP        -0.7989
      4 O3G         8.7349   -0.5016    2.9693 O.3       1 ACP        -0.7989
      5 PB          8.4714    2.1372   -0.6126 P.3       1 ACP         1.4947
      6 O1B         8.5419    1.5346   -1.9966 O.co2     1 ACP        -0.8554
      7 O2B         9.3766    3.2659   -0.1765 O.co2     1 ACP        -0.8554
      8 C3B         8.6895    0.7563    0.5984 C.3       1 ACP        -0.6550
      9 PA          5.8654    3.5047   -0.9930 P.3       1 ACP         1.5921
     10 O1A         5.5593    2.9518   -2.3681 O.co2     1 ACP        -0.8561
     11 O2A         6.3578    4.9258   -0.8257 O.co2     1 ACP        -0.8561
     12 O3A         6.9226    2.5019   -0.2553 O.3       1 ACP        -0.8166
     13 O5'         4.5669    3.2941   -0.0211 O.3       1 ACP        -0.5737
     14 C5'         4.0922    1.9801    0.2227 C.3       1 ACP         0.2197
     15 C4'         2.5944    2.0310    0.4653 C.3       1 ACP         0.0944
     16 O4'         1.9327    2.5740   -0.6889 O.3       1 ACP        -0.4017
     17 C3'         1.9685    0.6634    0.6767 C.3       1 ACP         0.0859
     18 O3'         2.1425    0.1975    1.9977 O.3       1 ACP        -0.5941
     19 C2'         0.5176    0.9128    0.3099 C.3       1 ACP         0.0924
     20 O2'        -0.2103    1.4454    1.4152 O.3       1 ACP        -0.5928
     21 C1'         0.6219    1.9765   -0.7844 C.3       1 ACP         0.3967
     22 N9          0.4237    1.4496   -2.1357 N.pl3     1 ACP        -0.6763
     23 C8         -0.7736    1.3475   -2.7932 C.ar      1 ACP         0.5586
     24 N7         -0.6356    0.8373   -3.9991 N.2       1 ACP        -0.5795
     25 C5          0.7095    0.5981   -4.1281 C.ar      1 ACP        -0.2116
     26 C6          1.4733    0.0704   -5.1643 C.ar      1 ACP         0.7185
     27 N6          0.8693   -0.3355   -6.3666 N.pl3     1 ACP        -0.9442
     28 N1          2.8130   -0.0482   -5.0009 N.ar      1 ACP        -0.8040
     29 C2          3.3380    0.3602   -3.8204 C.ar      1 ACP         0.6560
     30 N3          2.7052    0.8841   -2.7480 N.ar      1 ACP        -0.7058
     31 C4          1.3867    0.9726   -2.9785 C.ar      1 ACP         0.5729
     32 HOG2        6.8712    1.5872    3.6173 H         1 ACP         0.4440
     33 HOG3        8.6568   -0.6410    3.9370 H         1 ACP         0.4440
     34 H3B1        9.6429    0.2835    0.3370 H         1 ACP         0.1084
     35 H3B2        7.9002    0.0310    0.3703 H         1 ACP         0.1084
     36 H5'1        4.3181    1.3551   -0.6470 H         1 ACP         0.0281
     37 H5'2        4.6085    1.5740    1.0982 H         1 ACP         0.0281
     38 H4'         2.3751    2.7029    1.3156 H         1 ACP         0.1082
     39 H3'         2.4336   -0.1217   -0.0015 H         1 ACP         0.0650
     40 HO3'        1.7160   -0.6716    2.0397 H         1 ACP         0.4300
     41 H2'         0.0316    0.0155   -0.0339 H         1 ACP         0.0785
     42 HO2'       -0.1608    0.7921    2.1351 H         1 ACP         0.4275
     43 H1'        -0.1474    2.7798   -0.6651 H         1 ACP         0.1009
     44 H8         -1.7070    1.6599   -2.3451 H         1 ACP         0.1067
     45 HN61       -0.1277   -0.2866   -6.4583 H         1 ACP         0.4213
     46 HN62        1.4308   -0.7566   -7.0823 H         1 ACP         0.4213
     47 H2          4.4130    0.2505   -3.7241 H         1 ACP         0.0365
@<TRIPOS>BOND
     1    1    2 2
     2    1    3 1
     3    1    4 1
     4    1    8 1
     5    3   32 1
     6    4   33 1
     7    5    6 2
     8    5    7 1
     9    5    8 1
    10    5   12 1
    11    8   34 1
    12    8   35 1
    13    9   10 2
    14    9   11 1
    15    9   12 1
    16    9   13 1
    17   13   14 1
    18   14   15 1
    19   14   36 1
    20   14   37 1
    21   15   16 1
    22   15   17 1
    23   15   38 1
    24   16   21 1
    25   17   18 1
    26   17   19 1
    27   17   39 1
    28   18   40 1
    29   19   20 1
    30   19   21 1
    31   19   41 1
    32   20   42 1
    33   21   22 1
    34   21   43 1
    35   22   23 ar
    36   22   31 ar
    37   23   24 ar
    38   23   44 1
    39   24   25 ar
    40   25   26 ar
    41   25   31 ar
    42   26   27 1
    43   26   28 ar
    44   27   45 1
    45   27   46 1
    46   28   29 ar
    47   29   30 ar
    48   29   47 1
    49   30   31 ar
@<TRIPOS>SUBSTRUCTURE
     1 ACP         1 GROUP 0 A     ****
@<TRIPOS>MOLECULE
[[5-(6-aminopurin-9-yl)-3,4-dihydroxy-tetrahydrofuran-2-yl]methoxy-oxido-phosphoryl]oxy-(phosphonomethyl)phosphinate
   47    49     1     0     0
SMALL
USER_CHARGES

@<TRIPOS>ATOM
      1 PG          9.4957    3.2569    3.1334 P.3       1 ACP         1.6478
      2 O1G         9.7549    2.5431    1.8409 O.2       1 ACP        -0.9103
      3 O2G         9.9410    4.8095    3.1702 O.3       1 ACP        -0.7989
      4 O3G        10.2191    2.6238    4.4317 O.3       1 ACP        -0.7989
      5 PB          6.4454    4.1059    2.5810 P.3       1 ACP         1.4947
      6 O1B         6.8219    5.5603    2.4180 O.co2     1 ACP        -0.8554
      7 O2B         5.1083    3.6758    3.1384 O.co2     1 ACP        -0.8554
      8 C3B         7.7558    3.3133    3.6182 C.3       1 ACP        -0.6550
      9 PA          6.1592    3.5244   -0.3148 P.3       1 ACP         1.5921
     10 O1A         6.6744    2.4082   -1.1976 O.co2     1 ACP        -0.8561
     11 O2A         6.3656    4.9722   -0.7036 O.co2     1 ACP        -0.8561
     12 O3A         6.7482    3.3058    1.1928 O.3       1 ACP        -0.8166
     13 O5'         4.5669    3.2941   -0.0211 O.3       1 ACP        -0.5737
     14 C5'         4.0922    1.9801    0.2227 C.3       1 ACP         0.2197
     15 C4'         2.5944    2.0310    0.4653 C.3       1 ACP         0.0944
     16 O4'         1.9327    2.5740   -0.6889 O.3       1 ACP        -0.4017
     17 C3'         1.9685    0.6634    0.6767 C.3       1 ACP         0.0859
     18 O3'         2.1425    0.1975    1.9977 O.3       1 ACP        -0.5941
     19 C2'         0.5176    0.9128    0.3099 C.3       1 ACP         0.0924
     20 O2'        -0.2103    1.4454    1.4152 O.3       1 ACP        -0.5928
     21 C1'         0.6219    1.9765   -0.7844 C.3       1 ACP         0.3967
     22 N9          0.4237    1.4496   -2.1357 N.pl3     1 ACP        -0.6763
     23 C8         -0.7736    1.3475   -2.7932 C.ar      1 ACP         0.5586
     24 N7         -0.6356    0.8373   -3.9991 N.2       1 ACP        -0.5795
     25 C5          0.7095    0.5981   -4.1281 C.ar      1 ACP        -0.2116
     26 C6          1.4733    0.0704   -5.1643 C.ar      1 ACP         0.7185
     27 N6          0.8693   -0.3355   -6.3666 N.pl3     1 ACP        -0.9442
     28 N1          2.8130   -0.0482   -5.0009 N.ar      1 ACP        -0.8040
     29 C2          3.3380    0.3602   -3.8204 C.ar      1 ACP         0.6560
     30 N3          2.7052    0.8841   -2.7480 N.ar      1 ACP        -0.7058
     31 C4          1.3867    0.9726   -2.9785 C.ar      1 ACP         0.5729
     32 HOG2       10.8833    5.0371    3.0207 H         1 ACP         0.4440
     33 HOG3       11.1979    2.5635    4.4481 H         1 ACP         0.4440
     34 H3B1        7.4223    2.2813    3.7754 H         1 ACP         0.1084
     35 H3B2        7.7111    3.8151    4.5915 H         1 ACP         0.1084
     36 H5'1        4.3181    1.3551   -0.6470 H         1 ACP         0.0281
     37 H5'2        4.6085    1.5740    1.0982 H         1 ACP         0.0281
     38 H4'         2.3751    2.7029    1.3156 H         1 ACP         0.1082
     39 H3'         2.4336   -0.1217   -0.0015 H         1 ACP         0.0650
     40 HO3'        1.7160   -0.6716    2.0397 H         1 ACP         0.4300
     41 H2'         0.0316    0.0155   -0.0339 H         1 ACP         0.0785
     42 HO2'       -0.1608    0.7921    2.1351 H         1 ACP         0.4275
     43 H1'        -0.1474    2.7798   -0.6651 H         1 ACP         0.1009
     44 H8         -1.7070    1.6599   -2.3451 H         1 ACP         0.1067
     45 HN61       -0.1277   -0.2866   -6.4583 H         1 ACP         0.4213
     46 HN62        1.4308   -0.7566   -7.0823 H         1 ACP         0.4213
     47 H2          4.4130    0.2505   -3.7241 H         1 ACP         0.0365
@<TRIPOS>BOND
     1    1    2 2
     2    1    3 1
     3    1    4 1
     4    1    8 1
     5    3   32 1
     6    4   33 1
     7    5    6 2
     8    5    7 1
     9    5    8 1
    10    5   12 1
    11    8   34 1
    12    8   35 1
    13    9   10 2
    14    9   11 1
    15    9   12 1
    16    9   13 1
    17   13   14 1
    18   14   15 1
    19   14   36 1
    20   14   37 1
    21   15   16 1
    22   15   17 1
    23   15   38 1
    24   16   21 1
    25   17   18 1
    26   17   19 1
    27   17   39 1
    28   18   40 1
    29   19   20 1
    30   19   21 1
    31   19   41 1
    32   20   42 1
    33   21   22 1
    34   21   43 1
    35   22   23 ar
    36   22   31 ar
    37   23   24 ar
    38   23   44 1
    39   24   25 ar
    40   25   26 ar
    41   25   31 ar
    42   26   27 1
    43   26   28 ar
    44   27   45 1
    45   27   46 1
    46   28   29 ar
    47   29   30 ar
    48   29   47 1
    49   30   31 ar
@<TRIPOS>SUBSTRUCTURE
     1 ACP         1 GROUP 0 A     ****
@<TRIPOS>MOLECULE
[[5-(6-aminopurin-9-yl)-3,4-dihydroxy-tetrahydrofuran-2-yl]methoxy-oxido-phosphoryl]oxy-(phosphonomethyl)phosphinate
   47    49     1     0     0
SMALL
USER_CHARGES

@<TRIPOS>ATOM
      1 PG          6.9606    3.6436    4.6779 P.3       1 ACP         1.6478
      2 O1G         7.5158    4.9896    5.0347 O.2       1 ACP        -0.9103
      3 O2G         5.4803    3.6529    4.0305 O.3       1 ACP        -0.7989
      4 O3G         6.8318    2.6000    5.9043 O.3       1 ACP        -0.7989
      5 PB          8.2764    3.3675    1.7586 P.3       1 ACP         1.4947
      6 O1B         9.1186    2.3305    1.0523 O.co2     1 ACP        -0.8554
      7 O2B         8.7143    4.8074    1.8937 O.co2     1 ACP        -0.8554
      8 C3B         7.9387    2.7319    3.4624 C.3       1 ACP        -0.6550
      9 PA          6.1592    3.5244   -0.3148 P.3       1 ACP         1.5921
     10 O1A         6.6744    2.4082   -1.1976 O.co2     1 ACP        -0.8561
     11 O2A         6.3656    4.9722   -0.7036 O.co2     1 ACP        -0.8561
     12 O3A         6.7482    3.3058    1.1928 O.3       1 ACP        -0.8166
     13 O5'         4.5669    3.2941   -0.0211 O.3       1 ACP        -0.5737
     14 C5'         4.0922    1.9801    0.2227 C.3       1 ACP         0.2197
     15 C4'         2.5944    2.0310    0.4653 C.3       1 ACP         0.0944
     16 O4'         1.9327    2.5740   -0.6889 O.3       1 ACP        -0.4017
     17 C3'         1.9685    0.6634    0.6767 C.3       1 ACP         0.0859
     18 O3'         2.1425    0.1975    1.9977 O.3       1 ACP        -0.5941
     19 C2'         0.5176    0.9128    0.3099 C.3       1 ACP         0.0924
     20 O2'        -0.2103    1.4454    1.4152 O.3       1 ACP        -0.5928
     21 C1'         0.6219    1.9765   -0.7844 C.3       1 ACP         0.3967
     22 N9          0.4237    1.4496   -2.1357 N.pl3     1 ACP        -0.6763
     23 C8         -0.7736    1.3475   -2.7932 C.ar      1 ACP         0.5586
     24 N7         -0.6356    0.8373   -3.9991 N.2       1 ACP        -0.5795
     25 C5          0.7095    0.5981   -4.1281 C.ar      1 ACP        -0.2116
     26 C6          1.4733    0.0704   -5.1643 C.ar      1 ACP         0.7185
     27 N6          0.8693   -0.3355   -6.3666 N.pl3     1 ACP        -0.9442
     28 N1          2.8130   -0.0482   -5.0009 N.ar      1 ACP        -0.8040
     29 C2          3.3380    0.3602   -3.8204 C.ar      1 ACP         0.6560
     30 N3          2.7052    0.8841   -2.7480 N.ar      1 ACP        -0.7058
     31 C4          1.3867    0.9726   -2.9785 C.ar      1 ACP         0.5729
     32 HOG2        4.7369    4.0261    4.5502 H         1 ACP         0.4440
     33 HOG3        6.2665    2.8347    6.6706 H         1 ACP         0.4440
     34 H3B1        8.9226    2.5407    3.9055 H         1 ACP         0.1084
     35 H3B2        7.4543    1.7580    3.3278 H         1 ACP         0.1084
     36 H5'1        4.3181    1.3551   -0.6470 H         1 ACP         0.0281
     37 H5'2        4.6085    1.5740    1.0982 H         1 ACP         0.0281
     38 H4'         2.3751    2.7029    1.3156 H         1 ACP         0.1082
     39 H3'         2.4336   -0.1217   -0.0015 H         1 ACP         0.0650
     40 HO3'        1.7160   -0.6716    2.0397 H         1 ACP         0.4300
     41 H2'         0.0316    0.0155   -0.0339 H         1 ACP         0.0785
     42 HO2'       -0.1608    0.7921    2.1351 H         1 ACP         0.4275
     43 H1'        -0.1474    2.7798   -0.6651 H         1 ACP         0.1009
     44 H8         -1.7070    1.6599   -2.3451 H         1 ACP         0.1067
     45 HN61       -0.1277   -0.2866   -6.4583 H         1 ACP         0.4213
     46 HN62        1.4308   -0.7566   -7.0823 H         1 ACP         0.4213
     47 H2          4.4130    0.2505   -3.7241 H         1 ACP         0.0365
@<TRIPOS>BOND
     1    1    2 2
     2    1    3 1
     3    1    4 1
     4    1    8 1
     5    3   32 1
     6    4   33 1
     7    5    6 2
     8    5    7 1
     9    5    8 1
    10    5   12 1
    11    8   34 1
    12    8   35 1
    13    9   10 2
    14    9   11 1
    15    9   12 1
    16    9   13 1
    17   13   14 1
    18   14   15 1
    19   14   36 1
    20   14   37 1
    21   15   16 1
    22   15   17 1
    23   15   38 1
    24   16   21 1
    25   17   18 1
    26   17   19 1
    27   17   39 1
    28   18   40 1
    29   19   20 1
    30   19   21 1
    31   19   41 1
    32   20   42 1
    33   21   22 1
    34   21   43 1
    35   22   23 ar
    36   22   31 ar
    37   23   24 ar
    38   23   44 1
    39   24   25 ar
    40   25   26 ar
    41   25   31 ar
    42   26   27 1
    43   26   28 ar
    44   27   45 1
    45   27   46 1
    46   28   29 ar
    47   29   30 ar
    48   29   47 1
    49   30   31 ar
@<TRIPOS>SUBSTRUCTURE
     1 ACP         1 GROUP 0 A     ****
@<TRIPOS>MOLECULE
[[5-(6-aminopurin-9-yl)-3,4-dihydroxy-tetrahydrofuran-2-yl]methoxy-oxido-phosphoryl]oxy-(phosphonomethyl)phosphinate
   47    49     1     0     0
SMALL
USER_CHARGES

@<TRIPOS>ATOM
      1 PG          5.4194    0.7682    5.2229 P.3       1 ACP         1.6478
      2 O1G         5.9820   -0.0174    4.0767 O.2       1 ACP        -0.9103
      3 O2G         6.0167    0.3976    6.6776 O.3       1 ACP        -0.7989
      4 O3G         3.8214    0.6482    5.4270 O.3       1 ACP        -0.7989
      5 PB          5.0457    3.5786    3.7090 P.3       1 ACP         1.4947
      6 O1B         5.4705    5.0052    3.9694 O.co2     1 ACP        -0.8554
      7 O2B         3.6005    3.1933    3.4931 O.co2     1 ACP        -0.8554
      8 C3B         5.6869    2.5516    5.1072 C.3       1 ACP        -0.6550
      9 PA          6.1804    3.4026    0.9727 P.3       1 ACP         1.5921
     10 O1A         7.0439    2.3709    0.2795 O.co2     1 ACP        -0.8561
     11 O2A         6.5646    4.8662    0.9557 O.co2     1 ACP        -0.8561
     12 O3A         5.9695    2.9423    2.5255 O.3       1 ACP        -0.8166
     13 O5'         4.6404    3.2702    0.4379 O.3       1 ACP        -0.5737
     14 C5'         4.0922    1.9801    0.2227 C.3       1 ACP         0.2197
     15 C4'         2.5944    2.0310    0.4653 C.3       1 ACP         0.0944
     16 O4'         1.9327    2.5740   -0.6889 O.3       1 ACP        -0.4017
     17 C3'         1.9685    0.6634    0.6767 C.3       1 ACP         0.0859
     18 O3'         2.1425    0.1975    1.9977 O.3       1 ACP        -0.5941
     19 C2'         0.5176    0.9128    0.3099 C.3       1 ACP         0.0924
     20 O2'        -0.2103    1.4454    1.4152 O.3       1 ACP        -0.5928
     21 C1'         0.6219    1.9765   -0.7844 C.3       1 ACP         0.3967
     22 N9          0.4237    1.4496   -2.1357 N.pl3     1 ACP        -0.6763
     23 C8          1.4026    0.9717   -2.9660 C.ar      1 ACP         0.5586
     24 N7          0.9183    0.5619   -4.1197 N.2       1 ACP        -0.5795
     25 C5         -0.4330    0.7845   -4.0331 C.ar      1 ACP        -0.2116
     26 C6         -1.4794    0.5615   -4.9225 C.ar      1 ACP         0.7185
     27 N6         -1.2378    0.0044   -6.1899 N.pl3     1 ACP        -0.9442
     28 N1         -2.7406    0.8885   -4.5512 N.ar      1 ACP        -0.8040
     29 C2         -2.9113    1.4216   -3.3172 C.ar      1 ACP         0.6560
     30 N3         -1.9824    1.6843   -2.3721 N.ar      1 ACP        -0.7058
     31 C4         -0.7613    1.3370   -2.8054 C.ar      1 ACP         0.5729
     32 HOG2        5.9135   -0.5178    7.0144 H         1 ACP         0.4440
     33 HOG3        3.4293   -0.2342    5.5990 H         1 ACP         0.4440
     34 H3B1        5.2805    3.0070    6.0173 H         1 ACP         0.1084
     35 H3B2        6.7706    2.7142    5.1252 H         1 ACP         0.1084
     36 H5'1        4.3030    1.6732   -0.8066 H         1 ACP         0.0281
     37 H5'2        4.5679    1.2741    0.9106 H         1 ACP         0.0281
     38 H4'         2.3751    2.7029    1.3156 H         1 ACP         0.1082
     39 H3'         2.4336   -0.1217   -0.0015 H         1 ACP         0.0650
     40 HO3'        3.0987    0.1465    2.1461 H         1 ACP         0.4300
     41 H2'         0.0316    0.0155   -0.0339 H         1 ACP         0.0785
     42 HO2'       -0.1608    0.7921    2.1351 H         1 ACP         0.4275
     43 H1'        -0.1474    2.7798   -0.6651 H         1 ACP         0.1009
     44 H8          2.4442    0.9470   -2.6763 H         1 ACP         0.1067
     45 HN61       -0.2955   -0.1901   -6.4713 H         1 ACP         0.4213
     46 HN62       -1.9987   -0.1045   -6.8334 H         1 ACP         0.4213
     47 H2         -3.9335    1.6716   -3.0534 H         1 ACP         0.0365
@<TRIPOS>BOND
     1    1    2 2
     2    1    3 1
     3    1    4 1
     4    1    8 1
     5    3   32 1
     6    4   33 1
     7    5    6 2
     8    5    7 1
     9    5    8 1
    10    5   12 1
    11    8   34 1
    12    8   35 1
    13    9   10 2
    14    9   11 1
    15    9   12 1
    16    9   13 1
    17   13   14 1
    18   14   15 1
    19   14   36 1
    20   14   37 1
    21   15   16 1
    22   15   17 1
    23   15   38 1
    24   16   21 1
    25   17   18 1
    26   17   19 1
    27   17   39 1
    28   18   40 1
    29   19   20 1
    30   19   21 1
    31   19   41 1
    32   20   42 1
    33   21   22 1
    34   21   43 1
    35   22   23 ar
    36   22   31 ar
    37   23   24 ar
    38   23   44 1
    39   24   25 ar
    40   25   26 ar
    41   25   31 ar
    42   26   27 1
    43   26   28 ar
    44   27   45 1
    45   27   46 1
    46   28   29 ar
    47   29   30 ar
    48   29   47 1
    49   30   31 ar
@<TRIPOS>SUBSTRUCTURE
     1 ACP         1 GROUP 0 A     ****
@<TRIPOS>MOLECULE
[[5-(6-aminopurin-9-yl)-3,4-dihydroxy-tetrahydrofuran-2-yl]methoxy-oxido-phosphoryl]oxy-(phosphonomethyl)phosphinate
   47    49     1     0     0
SMALL
USER_CHARGES

@<TRIPOS>ATOM
      1 PG          7.9123    2.6291   -4.4550 P.3       1 ACP         1.6478
      2 O1G         8.5737    3.8765   -4.9589 O.2       1 ACP        -0.9103
      3 O2G         8.5925    1.9614   -3.1505 O.3       1 ACP        -0.7989
      4 O3G         7.8385    1.4090   -5.5111 O.3       1 ACP        -0.7989
      5 PB          5.6656    4.0141   -2.6207 P.3       1 ACP         1.4947
      6 O1B         4.1626    3.9132   -2.5011 O.co2     1 ACP        -0.8554
      7 O2B         6.3693    5.3282   -2.8686 O.co2     1 ACP        -0.8554
      8 C3B         6.1889    2.8478   -3.9575 C.3       1 ACP        -0.6550
      9 PA          6.2485    3.4955    0.2424 P.3       1 ACP         1.5921
     10 O1A         6.5918    4.9420    0.5255 O.co2     1 ACP        -0.8561
     11 O2A         6.9748    2.3768    0.9573 O.co2     1 ACP        -0.8561
     12 O3A         6.3651    3.2411   -1.3667 O.3       1 ACP        -0.8166
     13 O5'         4.6404    3.2702    0.4379 O.3       1 ACP        -0.5737
     14 C5'         4.0922    1.9801    0.2227 C.3       1 ACP         0.2197
     15 C4'         2.5944    2.0310    0.4653 C.3       1 ACP         0.0944
     16 O4'         1.9327    2.5740   -0.6889 O.3       1 ACP        -0.4017
     17 C3'         1.9685    0.6634    0.6767 C.3       1 ACP         0.0859
     18 O3'         2.1425    0.1975    1.9977 O.3       1 ACP        -0.5941
     19 C2'         0.5176    0.9128    0.3099 C.3       1 ACP         0.0924
     20 O2'        -0.2103    1.4454    1.4152 O.3       1 ACP        -0.5928
     21 C1'         0.6219    1.9765   -0.7844 C.3       1 ACP         0.3967
     22 N9          0.4237    1.4496   -2.1357 N.pl3     1 ACP        -0.6763
     23 C8         -0.7736    1.3475   -2.7932 C.ar      1 ACP         0.5586
     24 N7         -0.6356    0.8373   -3.9991 N.2       1 ACP        -0.5795
     25 C5          0.7095    0.5981   -4.1281 C.ar      1 ACP        -0.2116
     26 C6          1.4733    0.0704   -5.1643 C.ar      1 ACP         0.7185
     27 N6          0.8693   -0.3355   -6.3666 N.pl3     1 ACP        -0.9442
     28 N1          2.8130   -0.0482   -5.0009 N.ar      1 ACP        -0.8040
     29 C2          3.3380    0.3602   -3.8204 C.ar      1 ACP         0.6560
     30 N3          2.7052    0.8841   -2.7480 N.ar      1 ACP        -0.7058
     31 C4          1.3867    0.9726   -2.9785 C.ar      1 ACP         0.5729
     32 HOG2        9.5266    1.6664   -3.2003 H         1 ACP         0.4440
     33 HOG3        8.6733    1.0415   -5.8717 H         1 ACP         0.4440
     34 H3B1        5.6230    3.1469   -4.8470 H         1 ACP         0.1084
     35 H3B2        5.8151    1.8621   -3.6577 H         1 ACP         0.1084
     36 H5'1        4.3030    1.6732   -0.8066 H         1 ACP         0.0281
     37 H5'2        4.5679    1.2741    0.9106 H         1 ACP         0.0281
     38 H4'         2.3751    2.7029    1.3156 H         1 ACP         0.1082
     39 H3'         2.4336   -0.1217   -0.0015 H         1 ACP         0.0650
     40 HO3'        1.7160   -0.6716    2.0397 H         1 ACP         0.4300
     41 H2'         0.0316    0.0155   -0.0339 H         1 ACP         0.0785
     42 HO2'       -0.1608    0.7921    2.1351 H         1 ACP         0.4275
     43 H1'        -0.1474    2.7798   -0.6651 H         1 ACP         0.1009
     44 H8         -1.7070    1.6599   -2.3451 H         1 ACP         0.1067
     45 HN61       -0.1277   -0.2866   -6.4583 H         1 ACP         0.4213
     46 HN62        1.4308   -0.7566   -7.0823 H         1 ACP         0.4213
     47 H2          4.4130    0.2505   -3.7241 H         1 ACP         0.0365
@<TRIPOS>BOND
     1    1    2 2
     2    1    3 1
     3    1    4 1
     4    1    8 1
     5    3   32 1
     6    4   33 1
     7    5    6 2
     8    5    7 1
     9    5    8 1
    10    5   12 1
    11    8   34 1
    12    8   35 1
    13    9   10 2
    14    9   11 1
    15    9   12 1
    16    9   13 1
    17   13   14 1
    18   14   15 1
    19   14   36 1
    20   14   37 1
    21   15   16 1
    22   15   17 1
    23   15   38 1
    24   16   21 1
    25   17   18 1
    26   17   19 1
    27   17   39 1
    28   18   40 1
    29   19   20 1
    30   19   21 1
    31   19   41 1
    32   20   42 1
    33   21   22 1
    34   21   43 1
    35   22   23 ar
    36   22   31 ar
    37   23   24 ar
    38   23   44 1
    39   24   25 ar
    40   25   26 ar
    41   25   31 ar
    42   26   27 1
    43   26   28 ar
    44   27   45 1
    45   27   46 1
    46   28   29 ar
    47   29   30 ar
    48   29   47 1
    49   30   31 ar
@<TRIPOS>SUBSTRUCTURE
     1 ACP         1 GROUP 0 A     ****
@<TRIPOS>MOLECULE
[[5-(6-aminopurin-9-yl)-3,4-dihydroxy-tetrahydrofuran-2-yl]methoxy-oxido-phosphoryl]oxy-(phosphonomethyl)phosphinate
   47    49     1     0     0
SMALL
USER_CHARGES

@<TRIPOS>ATOM
      1 PG          6.7606    6.2065    0.3156 P.3       1 ACP         1.6478
      2 O1G         5.4380    5.5870   -0.0226 O.2       1 ACP        -0.9103
      3 O2G         6.6914    7.7024    0.9220 O.3       1 ACP        -0.7989
      4 O3G         7.7966    6.3440   -0.9162 O.3       1 ACP        -0.7989
      5 PB          8.2634    3.5500    1.3229 P.3       1 ACP         1.4947
      6 O1B         9.0248    3.1509    2.5656 O.co2     1 ACP        -0.8554
      7 O2B         8.8642    3.4468   -0.0599 O.co2     1 ACP        -0.8554
      8 C3B         7.7131    5.3004    1.5555 C.3       1 ACP        -0.6550
      9 PA          6.3565    1.2769    1.3737 P.3       1 ACP         1.5921
     10 O1A         6.7988    0.6870    2.6954 O.co2     1 ACP        -0.8561
     11 O2A         6.7715    0.6371    0.0667 O.co2     1 ACP        -0.8561
     12 O3A         6.7901    2.8512    1.3385 O.3       1 ACP        -0.8166
     13 O5'         4.7294    1.4425    1.3700 O.3       1 ACP        -0.5737
     14 C5'         4.0922    1.9801    0.2227 C.3       1 ACP         0.2197
     15 C4'         2.5944    2.0310    0.4653 C.3       1 ACP         0.0944
     16 O4'         1.9327    2.5740   -0.6889 O.3       1 ACP        -0.4017
     17 C3'         1.9685    0.6634    0.6767 C.3       1 ACP         0.0859
     18 O3'         2.1425    0.1975    1.9977 O.3       1 ACP        -0.5941
     19 C2'         0.5176    0.9128    0.3099 C.3       1 ACP         0.0924
     20 O2'        -0.2103    1.4454    1.4152 O.3       1 ACP        -0.5928
     21 C1'         0.6219    1.9765   -0.7844 C.3       1 ACP         0.3967
     22 N9          0.4237    1.4496   -2.1357 N.pl3     1 ACP        -0.6763
     23 C8          1.4026    0.9717   -2.9660 C.ar      1 ACP         0.5586
     24 N7          0.9183    0.5619   -4.1197 N.2       1 ACP        -0.5795
     25 C5         -0.4330    0.7845   -4.0331 C.ar      1 ACP        -0.2116
     26 C6         -1.4794    0.5615   -4.9225 C.ar      1 ACP         0.7185
     27 N6         -1.2378    0.0044   -6.1899 N.pl3     1 ACP        -0.9442
     28 N1         -2.7406    0.8885   -4.5512 N.ar      1 ACP        -0.8040
     29 C2         -2.9113    1.4216   -3.3172 C.ar      1 ACP         0.6560
     30 N3         -1.9824    1.6843   -2.3721 N.ar      1 ACP        -0.7058
     31 C4         -0.7613    1.3370   -2.8054 C.ar      1 ACP         0.5729
     32 HOG2        6.2875    8.4154    0.3830 H         1 ACP         0.4440
     33 HOG3        7.5380    6.8779   -1.6973 H         1 ACP         0.4440
     34 H3B1        8.6266    5.8722    1.7539 H         1 ACP         0.1084
     35 H3B2        7.1242    5.3085    2.4798 H         1 ACP         0.1084
     36 H5'1        4.4845    2.9853    0.0383 H         1 ACP         0.0281
     37 H5'2        4.3193    1.3444   -0.6389 H         1 ACP         0.0281
     38 H4'         2.3751    2.7029    1.3156 H         1 ACP         0.1082
     39 H3'         2.4336   -0.1217   -0.0015 H         1 ACP         0.0650
     40 HO3'        3.0987    0.1465    2.1461 H         1 ACP         0.4300
     41 H2'         0.0316    0.0155   -0.0339 H         1 ACP         0.0785
     42 HO2'       -0.1608    0.7921    2.1351 H         1 ACP         0.4275
     43 H1'        -0.1474    2.7798   -0.6651 H         1 ACP         0.1009
     44 H8          2.4442    0.9470   -2.6763 H         1 ACP         0.1067
     45 HN61       -0.2955   -0.1901   -6.4713 H         1 ACP         0.4213
     46 HN62       -1.9987   -0.1045   -6.8334 H         1 ACP         0.4213
     47 H2         -3.9335    1.6716   -3.0534 H         1 ACP         0.0365
@<TRIPOS>BOND
     1    1    2 2
     2    1    3 1
     3    1    4 1
     4    1    8 1
     5    3   32 1
     6    4   33 1
     7    5    6 2
     8    5    7 1
     9    5    8 1
    10    5   12 1
    11    8   34 1
    12    8   35 1
    13    9   10 2
    14    9   11 1
    15    9   12 1
    16    9   13 1
    17   13   14 1
    18   14   15 1
    19   14   36 1
    20   14   37 1
    21   15   16 1
    22   15   17 1
    23   15   38 1
    24   16   21 1
    25   17   18 1
    26   17   19 1
    27   17   39 1
    28   18   40 1
    29   19   20 1
    30   19   21 1
    31   19   41 1
    32   20   42 1
    33   21   22 1
    34   21   43 1
    35   22   23 ar
    36   22   31 ar
    37   23   24 ar
    38   23   44 1
    39   24   25 ar
    40   25   26 ar
    41   25   31 ar
    42   26   27 1
    43   26   28 ar
    44   27   45 1
    45   27   46 1
    46   28   29 ar
    47   29   30 ar
    48   29   47 1
    49   30   31 ar
@<TRIPOS>SUBSTRUCTURE
     1 ACP         1 GROUP 0 A     ****
@<TRIPOS>MOLECULE
[[5-(6-aminopurin-9-yl)-3,4-dihydroxy-tetrahydrofuran-2-yl]methoxy-oxido-phosphoryl]oxy-(phosphonomethyl)phosphinate
   47    49     1     0     0
SMALL
USER_CHARGES

@<TRIPOS>ATOM
      1 PG          4.4385    0.1538   -0.3630 P.3       1 ACP         1.6478
      2 O1G         5.7825    0.5022   -0.9284 O.2       1 ACP        -0.9103
      3 O2G         3.4156    1.3925   -0.1914 O.3       1 ACP        -0.7989
      4 O3G         4.4584   -0.5275    1.1016 O.3       1 ACP        -0.7989
      5 PB          2.9991   -0.7038   -3.1057 P.3       1 ACP         1.4947
      6 O1B         2.2332   -1.9150   -3.5853 O.co2     1 ACP        -0.8554
      7 O2B         4.2175   -0.1803   -3.8302 O.co2     1 ACP        -0.8554
      8 C3B         3.4962   -1.0276   -1.3539 C.3       1 ACP        -0.6550
      9 PA          1.2406    1.5710   -3.8401 P.3       1 ACP         1.5921
     10 O1A         0.2953    0.7995   -4.7355 O.co2     1 ACP        -0.8561
     11 O2A         2.3069    2.4657   -4.4340 O.co2     1 ACP        -0.8561
     12 O3A         1.9597    0.5194   -2.8180 O.3       1 ACP        -0.8166
     13 O5'         0.3757    2.4482   -2.7643 O.3       1 ACP        -0.5737
     14 C5'        -0.7794    1.8744   -2.1748 C.3       1 ACP         0.2197
     15 C4'        -0.9699    2.4597   -0.7819 C.3       1 ACP         0.0944
     16 O4'        -2.1475    1.8640   -0.2014 O.3       1 ACP        -0.4017
     17 C3'         0.1697    2.1347    0.1695 C.3       1 ACP         0.0859
     18 O3'         0.1809    3.0982    1.2223 O.3       1 ACP        -0.5941
     19 C2'        -0.2543    0.7880    0.7187 C.3       1 ACP         0.0924
     20 O2'         0.3606    0.4944    1.9582 O.3       1 ACP        -0.5928
     21 C1'        -1.7682    0.9516    0.8548 C.3       1 ACP         0.3967
     22 N9         -2.5926   -0.2553    0.7436 N.pl3     1 ACP        -0.6763
     23 C8         -3.5599   -0.4866   -0.1983 C.ar      1 ACP         0.5586
     24 N7         -4.1294   -1.6639   -0.0461 N.2       1 ACP        -0.5795
     25 C5         -3.5041   -2.2191    1.0420 C.ar      1 ACP        -0.2116
     26 C6         -3.6604   -3.4390    1.6925 C.ar      1 ACP         0.7185
     27 N6         -4.6108   -4.3735    1.2468 N.pl3     1 ACP        -0.9442
     28 N1         -2.8820   -3.7179    2.7657 N.ar      1 ACP        -0.8040
     29 C2         -1.9837   -2.7784    3.1481 C.ar      1 ACP         0.6560
     30 N3         -1.7408   -1.5668    2.6022 N.ar      1 ACP        -0.7058
     31 C4         -2.5438   -1.3578    1.5483 C.ar      1 ACP         0.5729
     32 HOG2        3.6698    2.1418    0.3883 H         1 ACP         0.4440
     33 HOG3        4.8501   -0.0311    1.8514 H         1 ACP         0.4440
     34 H3B1        4.0621   -1.9657   -1.3772 H         1 ACP         0.1084
     35 H3B2        2.5656   -1.2294   -0.8113 H         1 ACP         0.1084
     36 H5'1       -1.6462    2.0968   -2.8052 H         1 ACP         0.0281
     37 H5'2       -0.6469    0.7893   -2.1194 H         1 ACP         0.0281
     38 H4'        -1.1469    3.5409   -0.8522 H         1 ACP         0.1082
     39 H3'         1.1601    2.1310   -0.2934 H         1 ACP         0.0650
     40 HO3'        0.3098    3.9616    0.8017 H         1 ACP         0.4300
     41 H2'        -0.0024   -0.0091    0.0062 H         1 ACP         0.0785
     42 HO2'        0.0384   -0.3797    2.2403 H         1 ACP         0.4275
     43 H1'        -2.0584    1.4255    1.8301 H         1 ACP         0.1009
     44 H8         -3.8030    0.2355   -0.9657 H         1 ACP         0.1067
     45 HN61       -5.2130   -4.1372    0.4810 H         1 ACP         0.4213
     46 HN62       -4.7404   -5.2263    1.7576 H         1 ACP         0.4213
     47 H2         -1.3778   -3.0348    4.0107 H         1 ACP         0.0365
@<TRIPOS>BOND
     1    1    2 2
     2    1    3 1
     3    1    4 1
     4    1    8 1
     5    3   32 1
     6    4   33 1
     7    5    6 2
     8    5    7 1
     9    5    8 1
    10    5   12 1
    11    8   34 1
    12    8   35 1
    13    9   10 2
    14    9   11 1
    15    9   12 1
    16    9   13 1
    17   13   14 1
    18   14   15 1
    19   14   36 1
    20   14   37 1
    21   15   16 1
    22   15   17 1
    23   15   38 1
    24   16   21 1
    25   17   18 1
    26   17   19 1
    27   17   39 1
    28   18   40 1
    29   19   20 1
    30   19   21 1
    31   19   41 1
    32   20   42 1
    33   21   22 1
    34   21   43 1
    35   22   23 ar
    36   22   31 ar
    37   23   24 ar
    38   23   44 1
    39   24   25 ar
    40   25   26 ar
    41   25   31 ar
    42   26   27 1
    43   26   28 ar
    44   27   45 1
    45   27   46 1
    46   28   29 ar
    47   29   30 ar
    48   29   47 1
    49   30   31 ar
@<TRIPOS>SUBSTRUCTURE
     1 ACP         1 GROUP 0 A     ****
@<TRIPOS>MOLECULE
[[5-(6-aminopurin-9-yl)-3,4-dihydroxy-tetrahydrofuran-2-yl]methoxy-oxido-phosphoryl]oxy-(phosphonomethyl)phosphinate
   47    49     1     0     0
SMALL
USER_CHARGES

@<TRIPOS>ATOM
      1 PG          3.0992    2.8310   -4.6646 P.3       1 ACP         1.6478
      2 O1G         3.5485    1.4163   -4.8739 O.2       1 ACP        -0.9103
      3 O2G         4.2829    3.9159   -4.4855 O.3       1 ACP        -0.7989
      4 O3G         2.1612    3.0761   -3.3723 O.3       1 ACP        -0.7989
      5 PB          0.5114    2.7735   -6.5698 P.3       1 ACP         1.4947
      6 O1B         0.7947    1.3542   -7.0046 O.co2     1 ACP        -0.8554
      7 O2B        -0.1573    3.7780   -7.4794 O.co2     1 ACP        -0.8554
      8 C3B         2.1168    3.5098   -6.0210 C.3       1 ACP        -0.6550
      9 PA         -1.6496    2.0940   -4.6528 P.3       1 ACP         1.5921
     10 O1A        -1.5278    0.5889   -4.7545 O.co2     1 ACP        -0.8561
     11 O2A        -2.7753    2.8251   -5.3515 O.co2     1 ACP        -0.8561
     12 O3A        -0.2333    2.7606   -5.1191 O.3       1 ACP        -0.8166
     13 O5'        -1.6520    2.5338   -3.0775 O.3       1 ACP        -0.5737
     14 C5'        -0.7794    1.8744   -2.1748 C.3       1 ACP         0.2197
     15 C4'        -0.9699    2.4597   -0.7819 C.3       1 ACP         0.0944
     16 O4'        -2.1475    1.8640   -0.2014 O.3       1 ACP        -0.4017
     17 C3'         0.1697    2.1347    0.1695 C.3       1 ACP         0.0859
     18 O3'         0.1809    3.0982    1.2223 O.3       1 ACP        -0.5941
     19 C2'        -0.2543    0.7880    0.7187 C.3       1 ACP         0.0924
     20 O2'         0.3606    0.4944    1.9582 O.3       1 ACP        -0.5928
     21 C1'        -1.7682    0.9516    0.8548 C.3       1 ACP         0.3967
     22 N9         -2.5926   -0.2553    0.7436 N.pl3     1 ACP        -0.6763
     23 C8         -2.6465   -1.0979   -0.3350 C.ar      1 ACP         0.5586
     24 N7         -3.4765   -2.1012   -0.1400 N.2       1 ACP        -0.5795
     25 C5         -3.9826   -1.8994    1.1194 C.ar      1 ACP        -0.2116
     26 C6         -4.8981   -2.6116    1.8877 C.ar      1 ACP         0.7185
     27 N6         -5.4931   -3.7842    1.3916 N.pl3     1 ACP        -0.9442
     28 N1         -5.2111   -2.1602    3.1262 N.ar      1 ACP        -0.8040
     29 C2         -4.6051   -1.0248    3.5500 C.ar      1 ACP         0.6560
     30 N3         -3.7075   -0.2510    2.9016 N.ar      1 ACP        -0.7058
     31 C4         -3.4448   -0.7551    1.6866 C.ar      1 ACP         0.5729
     32 HOG2        4.9140    3.8120   -3.7419 H         1 ACP         0.4440
     33 HOG3        2.5129    2.8615   -2.4823 H         1 ACP         0.4440
     34 H3B1        1.8933    4.5545   -5.7773 H         1 ACP         0.1084
     35 H3B2        2.7602    3.5194   -6.9081 H         1 ACP         0.1084
     36 H5'1       -1.0116    0.8048   -2.1755 H         1 ACP         0.0281
     37 H5'2        0.2522    2.0163   -2.5121 H         1 ACP         0.0281
     38 H4'        -1.1469    3.5409   -0.8522 H         1 ACP         0.1082
     39 H3'         1.1601    2.1310   -0.2934 H         1 ACP         0.0650
     40 HO3'        0.3098    3.9616    0.8017 H         1 ACP         0.4300
     41 H2'        -0.0024   -0.0091    0.0062 H         1 ACP         0.0785
     42 HO2'        0.0384   -0.3797    2.2403 H         1 ACP         0.4275
     43 H1'        -2.0584    1.4255    1.8301 H         1 ACP         0.1009
     44 H8         -2.0609   -0.9301   -1.2286 H         1 ACP         0.1067
     45 HN61       -5.2894   -4.0827    0.4566 H         1 ACP         0.4213
     46 HN62       -6.1852   -4.2564    1.9420 H         1 ACP         0.4213
     47 H2         -4.8793   -0.6924    4.5457 H         1 ACP         0.0365
@<TRIPOS>BOND
     1    1    2 2
     2    1    3 1
     3    1    4 1
     4    1    8 1
     5    3   32 1
     6    4   33 1
     7    5    6 2
     8    5    7 1
     9    5    8 1
    10    5   12 1
    11    8   34 1
    12    8   35 1
    13    9   10 2
    14    9   11 1
    15    9   12 1
    16    9   13 1
    17   13   14 1
    18   14   15 1
    19   14   36 1
    20   14   37 1
    21   15   16 1
    22   15   17 1
    23   15   38 1
    24   16   21 1
    25   17   18 1
    26   17   19 1
    27   17   39 1
    28   18   40 1
    29   19   20 1
    30   19   21 1
    31   19   41 1
    32   20   42 1
    33   21   22 1
    34   21   43 1
    35   22   23 ar
    36   22   31 ar
    37   23   24 ar
    38   23   44 1
    39   24   25 ar
    40   25   26 ar
    41   25   31 ar
    42   26   27 1
    43   26   28 ar
    44   27   45 1
    45   27   46 1
    46   28   29 ar
    47   29   30 ar
    48   29   47 1
    49   30   31 ar
@<TRIPOS>SUBSTRUCTURE
     1 ACP         1 GROUP 0 A     ****
@<TRIPOS>MOLECULE
[[5-(6-aminopurin-9-yl)-3,4-dihydroxy-tetrahydrofuran-2-yl]methoxy-oxido-phosphoryl]oxy-(phosphonomethyl)phosphinate
   47    49     1     0     0
SMALL
USER_CHARGES

@<TRIPOS>ATOM
      1 PG         -5.1279    4.4219    1.2353 P.3       1 ACP         1.6478
      2 O1G        -5.7979    3.6653    2.3425 O.2       1 ACP        -0.9103
      3 O2G        -6.0672    4.7763   -0.0305 O.3       1 ACP        -0.7989
      4 O3G        -3.8525    3.6886    0.5679 O.3       1 ACP        -0.7989
      5 PB         -3.1804    6.2361    3.0369 P.3       1 ACP         1.4947
      6 O1B        -3.7534    5.6762    4.3182 O.co2     1 ACP        -0.8554
      7 O2B        -2.6565    7.6500    2.9371 O.co2     1 ACP        -0.8554
      8 C3B        -4.4678    6.0313    1.7249 C.3       1 ACP        -0.6550
      9 PA         -0.6906    4.6218    3.0694 P.3       1 ACP         1.5921
     10 O1A        -1.0308    3.7715    4.2743 O.co2     1 ACP        -0.8561
     11 O2A         0.2906    5.7679    3.1872 O.co2     1 ACP        -0.8561
     12 O3A        -2.0804    5.1956    2.4316 O.3       1 ACP        -0.8166
     13 O5'        -0.2059    3.6558    1.8419 O.3       1 ACP        -0.5737
     14 C5'        -0.8811    2.4285    1.6206 C.3       1 ACP         0.2197
     15 C4'        -0.1994    1.3333    2.4288 C.3       1 ACP         0.0944
     16 O4'        -1.1285    0.2356    2.5840 O.3       1 ACP        -0.4017
     17 C3'         1.0324    0.7610    1.7344 C.3       1 ACP         0.0859
     18 O3'         1.9175    0.2377    2.7247 O.3       1 ACP        -0.5941
     19 C2'         0.4468   -0.3802    0.9263 C.3       1 ACP         0.0924
     20 O2'         1.3993   -1.3703    0.5961 O.3       1 ACP        -0.5928
     21 C1'        -0.6159   -0.9100    1.8769 C.3       1 ACP         0.3967
     22 N9         -1.7127   -1.6108    1.2130 N.pl3     1 ACP        -0.6763
     23 C8         -2.8641   -1.0399    0.7392 C.ar      1 ACP         0.5586
     24 N7         -3.6659   -1.9257    0.1858 N.2       1 ACP        -0.5795
     25 C5         -3.0053   -3.1223    0.3069 C.ar      1 ACP        -0.2116
     26 C6         -3.3321   -4.4178   -0.0813 C.ar      1 ACP         0.7185
     27 N6         -4.5476   -4.6866   -0.7335 N.pl3     1 ACP        -0.9442
     28 N1         -2.4608   -5.4225    0.1773 N.ar      1 ACP        -0.8040
     29 C2         -1.3053   -5.1020    0.8081 C.ar      1 ACP         0.6560
     30 N3         -0.8788   -3.8921    1.2315 N.ar      1 ACP        -0.7058
     31 C4         -1.7870   -2.9477    0.9438 C.ar      1 ACP         0.5729
     32 HOG2       -6.4823    4.0439   -0.5339 H         1 ACP         0.4440
     33 HOG3       -3.9761    2.8130    0.1436 H         1 ACP         0.4440
     34 H3B1       -4.0523    6.5053    0.8285 H         1 ACP         0.1084
     35 H3B2       -5.3197    6.6427    2.0438 H         1 ACP         0.1084
     36 H5'1       -1.9255    2.5383    1.9294 H         1 ACP         0.0281
     37 H5'2       -0.8472    2.1934    0.5521 H         1 ACP         0.0281
     38 H4'         0.0403    1.7078    3.4343 H         1 ACP         0.1082
     39 H3'         1.5906    1.4859    1.1353 H         1 ACP         0.0650
     40 HO3'        2.6839   -0.1150    2.2479 H         1 ACP         0.4300
     41 H2'        -0.0017    0.0018    0.0005 H         1 ACP         0.0785
     42 HO2'        2.0953   -0.9375    0.0709 H         1 ACP         0.4275
     43 H1'        -0.1998   -1.6319    2.6178 H         1 ACP         0.1009
     44 H8         -3.0609    0.0200    0.8250 H         1 ACP         0.1067
     45 HN61       -5.2046   -3.9433   -0.8775 H         1 ACP         0.4213
     46 HN62       -4.7849   -5.6332   -0.9625 H         1 ACP         0.4213
     47 H2         -0.6318   -5.9307    0.9993 H         1 ACP         0.0365
@<TRIPOS>BOND
     1    1    2 2
     2    1    3 1
     3    1    4 1
     4    1    8 1
     5    3   32 1
     6    4   33 1
     7    5    6 2
     8    5    7 1
     9    5    8 1
    10    5   12 1
    11    8   34 1
    12    8   35 1
    13    9   10 2
    14    9   11 1
    15    9   12 1
    16    9   13 1
    17   13   14 1
    18   14   15 1
    19   14   36 1
    20   14   37 1
    21   15   16 1
    22   15   17 1
    23   15   38 1
    24   16   21 1
    25   17   18 1
    26   17   19 1
    27   17   39 1
    28   18   40 1
    29   19   20 1
    30   19   21 1
    31   19   41 1
    32   20   42 1
    33   21   22 1
    34   21   43 1
    35   22   23 ar
    36   22   31 ar
    37   23   24 ar
    38   23   44 1
    39   24   25 ar
    40   25   26 ar
    41   25   31 ar
    42   26   27 1
    43   26   28 ar
    44   27   45 1
    45   27   46 1
    46   28   29 ar
    47   29   30 ar
    48   29   47 1
    49   30   31 ar
@<TRIPOS>SUBSTRUCTURE
     1 ACP         1 GROUP 0 A     ****
@<TRIPOS>MOLECULE
[[5-(6-aminopurin-9-yl)-3,4-dihydroxy-tetrahydrofuran-2-yl]methoxy-oxido-phosphoryl]oxy-(phosphonomethyl)phosphinate
   47    49     1     0     0
SMALL
USER_CHARGES

@<TRIPOS>ATOM
      1 PG         -2.5083    7.5118    5.1267 P.3       1 ACP         1.6478
      2 O1G        -3.6637    7.8424    6.0228 O.2       1 ACP        -0.9103
      3 O2G        -1.1775    8.3992    5.3543 O.3       1 ACP        -0.7989
      4 O3G        -2.7954    7.6575    3.5437 O.3       1 ACP        -0.7989
      5 PB         -0.4924    5.1526    4.2900 P.3       1 ACP         1.4947
      6 O1B        -0.2937    3.7118    4.7002 O.co2     1 ACP        -0.8554
      7 O2B         0.6213    6.1718    4.3570 O.co2     1 ACP        -0.8554
      8 C3B        -1.9063    5.8150    5.2814 C.3       1 ACP        -0.6550
      9 PA         -0.5788    5.0300    1.3263 P.3       1 ACP         1.5921
     10 O1A         0.5648    6.0081    1.1646 O.co2     1 ACP        -0.8561
     11 O2A        -1.7187    5.0058    0.3313 O.co2     1 ACP        -0.8561
     12 O3A        -1.2048    5.2086    2.8242 O.3       1 ACP        -0.8166
     13 O5'         0.0182    3.5132    1.4596 O.3       1 ACP        -0.5737
     14 C5'        -0.8811    2.4285    1.6206 C.3       1 ACP         0.2197
     15 C4'        -0.1994    1.3333    2.4288 C.3       1 ACP         0.0944
     16 O4'        -1.1285    0.2356    2.5840 O.3       1 ACP        -0.4017
     17 C3'         1.0324    0.7610    1.7344 C.3       1 ACP         0.0859
     18 O3'         1.9175    0.2377    2.7247 O.3       1 ACP        -0.5941
     19 C2'         0.4468   -0.3802    0.9263 C.3       1 ACP         0.0924
     20 O2'         1.3993   -1.3703    0.5961 O.3       1 ACP        -0.5928
     21 C1'        -0.6159   -0.9100    1.8769 C.3       1 ACP         0.3967
     22 N9         -1.7127   -1.6108    1.2130 N.pl3     1 ACP        -0.6763
     23 C8         -2.8641   -1.0399    0.7392 C.ar      1 ACP         0.5586
     24 N7         -3.6659   -1.9257    0.1858 N.2       1 ACP        -0.5795
     25 C5         -3.0053   -3.1223    0.3069 C.ar      1 ACP        -0.2116
     26 C6         -3.3321   -4.4178   -0.0813 C.ar      1 ACP         0.7185
     27 N6         -4.5476   -4.6866   -0.7335 N.pl3     1 ACP        -0.9442
     28 N1         -2.4608   -5.4225    0.1773 N.ar      1 ACP        -0.8040
     29 C2         -1.3053   -5.1020    0.8081 C.ar      1 ACP         0.6560
     30 N3         -0.8788   -3.8921    1.2315 N.ar      1 ACP        -0.7058
     31 C4         -1.7870   -2.9477    0.9438 C.ar      1 ACP         0.5729
     32 HOG2       -1.2289    9.3715    5.2361 H         1 ACP         0.4440
     33 HOG3       -3.0600    8.5322    3.1873 H         1 ACP         0.4440
     34 H3B1       -1.6304    5.6560    6.3300 H         1 ACP         0.1084
     35 H3B2       -2.7548    5.1542    5.0707 H         1 ACP         0.1084
     36 H5'1       -1.7769    2.7852    2.1386 H         1 ACP         0.0281
     37 H5'2       -1.1652    2.0544    0.6320 H         1 ACP         0.0281
     38 H4'         0.0403    1.7078    3.4343 H         1 ACP         0.1082
     39 H3'         1.5906    1.4859    1.1353 H         1 ACP         0.0650
     40 HO3'        2.1521    0.9800    3.3017 H         1 ACP         0.4300
     41 H2'        -0.0017    0.0018    0.0005 H         1 ACP         0.0785
     42 HO2'        1.7495   -1.7243    1.4324 H         1 ACP         0.4275
     43 H1'        -0.1998   -1.6319    2.6178 H         1 ACP         0.1009
     44 H8         -3.0609    0.0200    0.8250 H         1 ACP         0.1067
     45 HN61       -5.2046   -3.9433   -0.8775 H         1 ACP         0.4213
     46 HN62       -4.7849   -5.6332   -0.9625 H         1 ACP         0.4213
     47 H2         -0.6318   -5.9307    0.9993 H         1 ACP         0.0365
@<TRIPOS>BOND
     1    1    2 2
     2    1    3 1
     3    1    4 1
     4    1    8 1
     5    3   32 1
     6    4   33 1
     7    5    6 2
     8    5    7 1
     9    5    8 1
    10    5   12 1
    11    8   34 1
    12    8   35 1
    13    9   10 2
    14    9   11 1
    15    9   12 1
    16    9   13 1
    17   13   14 1
    18   14   15 1
    19   14   36 1
    20   14   37 1
    21   15   16 1
    22   15   17 1
    23   15   38 1
    24   16   21 1
    25   17   18 1
    26   17   19 1
    27   17   39 1
    28   18   40 1
    29   19   20 1
    30   19   21 1
    31   19   41 1
    32   20   42 1
    33   21   22 1
    34   21   43 1
    35   22   23 ar
    36   22   31 ar
    37   23   24 ar
    38   23   44 1
    39   24   25 ar
    40   25   26 ar
    41   25   31 ar
    42   26   27 1
    43   26   28 ar
    44   27   45 1
    45   27   46 1
    46   28   29 ar
    47   29   30 ar
    48   29   47 1
    49   30   31 ar
@<TRIPOS>SUBSTRUCTURE
     1 ACP         1 GROUP 0 A     ****
@<TRIPOS>MOLECULE
[[5-(6-aminopurin-9-yl)-3,4-dihydroxy-tetrahydrofuran-2-yl]methoxy-oxido-phosphoryl]oxy-(phosphonomethyl)phosphinate
   47    49     1     0     0
SMALL
USER_CHARGES

@<TRIPOS>ATOM
      1 PG          0.9645    6.6788    0.3282 P.3       1 ACP         1.6478
      2 O1G         1.0171    5.1846    0.2190 O.2       1 ACP        -0.9103
      3 O2G         1.1556    7.4832   -1.0598 O.3       1 ACP        -0.7989
      4 O3G         2.0669    7.3413    1.3056 O.3       1 ACP        -0.7989
      5 PB         -1.2569    6.8883    2.6416 P.3       1 ACP         1.4947
      6 O1B        -2.5685    7.6196    2.8100 O.co2     1 ACP        -0.8554
      7 O2B        -0.1202    7.0323    3.6268 O.co2     1 ACP        -0.8554
      8 C3B        -0.5963    7.3250    0.9701 C.3       1 ACP        -0.6550
      9 PA         -1.9154    4.0917    3.3841 P.3       1 ACP         1.5921
     10 O1A        -3.2739    4.3706    3.9902 O.co2     1 ACP        -0.8561
     11 O2A        -0.7157    3.8308    4.2687 O.co2     1 ACP        -0.8561
     12 O3A        -1.5461    5.3085    2.3591 O.3       1 ACP        -0.8166
     13 O5'        -2.0402    2.8619    2.3132 O.3       1 ACP        -0.5737
     14 C5'        -0.8811    2.4285    1.6206 C.3       1 ACP         0.2197
     15 C4'        -0.1994    1.3333    2.4288 C.3       1 ACP         0.0944
     16 O4'        -1.1285    0.2356    2.5840 O.3       1 ACP        -0.4017
     17 C3'         1.0324    0.7610    1.7344 C.3       1 ACP         0.0859
     18 O3'         1.9175    0.2377    2.7247 O.3       1 ACP        -0.5941
     19 C2'         0.4468   -0.3802    0.9263 C.3       1 ACP         0.0924
     20 O2'         1.3993   -1.3703    0.5961 O.3       1 ACP        -0.5928
     21 C1'        -0.6159   -0.9100    1.8769 C.3       1 ACP         0.3967
     22 N9         -1.7127   -1.6108    1.2130 N.pl3     1 ACP        -0.6763
     23 C8         -1.7712   -2.9546    0.9544 C.ar      1 ACP         0.5586
     24 N7         -2.8883   -3.2948    0.3462 N.2       1 ACP        -0.5795
     25 C5         -3.5834   -2.1202    0.2043 C.ar      1 ACP        -0.2116
     26 C6         -4.8225   -1.8251   -0.3554 C.ar      1 ACP         0.7185
     27 N6         -5.6154   -2.8394   -0.9189 N.pl3     1 ACP        -0.9442
     28 N1         -5.2589   -0.5425   -0.3507 N.ar      1 ACP        -0.8040
     29 C2         -4.4510    0.3913    0.2069 C.ar      1 ACP         0.6560
     30 N3         -3.2368    0.2296    0.7767 N.ar      1 ACP        -0.7058
     31 C4         -2.8684   -1.0596    0.7376 C.ar      1 ACP         0.5729
     32 HOG2        1.9871    7.3655   -1.5665 H         1 ACP         0.4440
     33 HOG3        3.0183    7.2047    1.1104 H         1 ACP         0.4440
     34 H3B1       -0.5326    8.4188    0.9554 H         1 ACP         0.1084
     35 H3B2       -1.3777    7.0409    0.2561 H         1 ACP         0.1084
     36 H5'1       -1.1771    2.0504    0.6370 H         1 ACP         0.0281
     37 H5'2       -0.2083    3.2816    1.4878 H         1 ACP         0.0281
     38 H4'         0.0403    1.7078    3.4343 H         1 ACP         0.1082
     39 H3'         1.5906    1.4859    1.1353 H         1 ACP         0.0650
     40 HO3'        2.1521    0.9800    3.3017 H         1 ACP         0.4300
     41 H2'        -0.0017    0.0018    0.0005 H         1 ACP         0.0785
     42 HO2'        0.9369   -2.0558    0.0825 H         1 ACP         0.4275
     43 H1'        -0.1998   -1.6319    2.6178 H         1 ACP         0.1009
     44 H8         -0.9745   -3.6312    1.2318 H         1 ACP         0.1067
     45 HN61       -5.2619   -3.7766   -0.9586 H         1 ACP         0.4213
     46 HN62       -6.4834   -2.5990   -1.3590 H         1 ACP         0.4213
     47 H2         -4.8317    1.4071    0.1930 H         1 ACP         0.0365
@<TRIPOS>BOND
     1    1    2 2
     2    1    3 1
     3    1    4 1
     4    1    8 1
     5    3   32 1
     6    4   33 1
     7    5    6 2
     8    5    7 1
     9    5    8 1
    10    5   12 1
    11    8   34 1
    12    8   35 1
    13    9   10 2
    14    9   11 1
    15    9   12 1
    16    9   13 1
    17   13   14 1
    18   14   15 1
    19   14   36 1
    20   14   37 1
    21   15   16 1
    22   15   17 1
    23   15   38 1
    24   16   21 1
    25   17   18 1
    26   17   19 1
    27   17   39 1
    28   18   40 1
    29   19   20 1
    30   19   21 1
    31   19   41 1
    32   20   42 1
    33   21   22 1
    34   21   43 1
    35   22   23 ar
    36   22   31 ar
    37   23   24 ar
    38   23   44 1
    39   24   25 ar
    40   25   26 ar
    41   25   31 ar
    42   26   27 1
    43   26   28 ar
    44   27   45 1
    45   27   46 1
    46   28   29 ar
    47   29   30 ar
    48   29   47 1
    49   30   31 ar
@<TRIPOS>SUBSTRUCTURE
     1 ACP         1 GROUP 0 A     ****
@<TRIPOS>MOLECULE
[[5-(6-aminopurin-9-yl)-3,4-dihydroxy-tetrahydrofuran-2-yl]methoxy-oxido-phosphoryl]oxy-(phosphonomethyl)phosphinate
   47    49     1     0     0
SMALL
USER_CHARGES

@<TRIPOS>ATOM
      1 PG          0.6227    3.6767   -8.0131 P.3       1 ACP         1.6478
      2 O1G        -0.4893    3.9965   -8.9662 O.2       1 ACP        -0.9103
      3 O2G         2.1074    4.0523   -8.5276 O.3       1 ACP        -0.7989
      4 O3G         0.7489    2.1221   -7.5922 O.3       1 ACP        -0.7989
      5 PB         -0.9264    4.3242   -5.2724 P.3       1 ACP         1.4947
      6 O1B        -2.1620    4.7793   -6.0138 O.co2     1 ACP        -0.8554
      7 O2B        -0.5221    4.9119   -3.9402 O.co2     1 ACP        -0.8554
      8 C3B         0.5084    4.5259   -6.4220 C.3       1 ACP        -0.6550
      9 PA         -1.9759    1.6544   -4.5128 P.3       1 ACP         1.5921
     10 O1A        -1.3988    0.2579   -4.5978 O.co2     1 ACP        -0.8561
     11 O2A        -3.3526    1.9544   -5.0646 O.co2     1 ACP        -0.8561
     12 O3A        -0.9122    2.6959   -5.1848 O.3       1 ACP        -0.8166
     13 O5'        -1.9208    2.1717   -2.9622 O.3       1 ACP        -0.5737
     14 C5'        -0.7794    1.8744   -2.1748 C.3       1 ACP         0.2197
     15 C4'        -0.9699    2.4597   -0.7819 C.3       1 ACP         0.0944
     16 O4'        -2.1475    1.8640   -0.2014 O.3       1 ACP        -0.4017
     17 C3'         0.1697    2.1347    0.1695 C.3       1 ACP         0.0859
     18 O3'         0.1809    3.0982    1.2223 O.3       1 ACP        -0.5941
     19 C2'        -0.2543    0.7880    0.7187 C.3       1 ACP         0.0924
     20 O2'         0.3606    0.4944    1.9582 O.3       1 ACP        -0.5928
     21 C1'        -1.7682    0.9516    0.8548 C.3       1 ACP         0.3967
     22 N9         -2.5926   -0.2553    0.7436 N.pl3     1 ACP        -0.6763
     23 C8         -2.2879   -1.3752    0.0161 C.ar      1 ACP         0.5586
     24 N7         -3.2214   -2.2987    0.1123 N.2       1 ACP        -0.5795
     25 C5         -4.1723   -1.7531    0.9377 C.ar      1 ACP        -0.2116
     26 C6         -5.3870   -2.2342    1.4159 C.ar      1 ACP         0.7185
     27 N6         -5.8433   -3.5142    1.0574 N.pl3     1 ACP        -0.9442
     28 N1         -6.1289   -1.4512    2.2356 N.ar      1 ACP        -0.8040
     29 C2         -5.6370   -0.2275    2.5461 C.ar      1 ACP         0.6560
     30 N3         -4.4810    0.3469    2.1476 N.ar      1 ACP        -0.7058
     31 C4         -3.7996   -0.4810    1.3417 C.ar      1 ACP         0.5729
     32 HOG2        2.4448    3.6363   -9.3493 H         1 ACP         0.4440
     33 HOG3        0.9072    1.4521   -8.2908 H         1 ACP         0.4440
     34 H3B1        1.3944    4.2539   -5.8373 H         1 ACP         0.1084
     35 H3B2        0.5785    5.6002   -6.6272 H         1 ACP         0.1084
     36 H5'1       -0.6602    0.7877   -2.1203 H         1 ACP         0.0281
     37 H5'2        0.1041    2.3072   -2.6545 H         1 ACP         0.0281
     38 H4'        -1.1469    3.5409   -0.8522 H         1 ACP         0.1082
     39 H3'         1.1601    2.1310   -0.2934 H         1 ACP         0.0650
     40 HO3'        0.9173    2.8584    1.8048 H         1 ACP         0.4300
     41 H2'        -0.0024   -0.0091    0.0062 H         1 ACP         0.0785
     42 HO2'        0.0384   -0.3797    2.2403 H         1 ACP         0.4275
     43 H1'        -2.0584    1.4255    1.8301 H         1 ACP         0.1009
     44 H8         -1.3765   -1.4593   -0.5599 H         1 ACP         0.1067
     45 HN61       -5.3086   -4.0656    0.4134 H         1 ACP         0.4213
     46 HN62       -6.7426   -3.8233    1.3745 H         1 ACP         0.4213
     47 H2         -6.2570    0.3723    3.2040 H         1 ACP         0.0365
@<TRIPOS>BOND
     1    1    2 2
     2    1    3 1
     3    1    4 1
     4    1    8 1
     5    3   32 1
     6    4   33 1
     7    5    6 2
     8    5    7 1
     9    5    8 1
    10    5   12 1
    11    8   34 1
    12    8   35 1
    13    9   10 2
    14    9   11 1
    15    9   12 1
    16    9   13 1
    17   13   14 1
    18   14   15 1
    19   14   36 1
    20   14   37 1
    21   15   16 1
    22   15   17 1
    23   15   38 1
    24   16   21 1
    25   17   18 1
    26   17   19 1
    27   17   39 1
    28   18   40 1
    29   19   20 1
    30   19   21 1
    31   19   41 1
    32   20   42 1
    33   21   22 1
    34   21   43 1
    35   22   23 ar
    36   22   31 ar
    37   23   24 ar
    38   23   44 1
    39   24   25 ar
    40   25   26 ar
    41   25   31 ar
    42   26   27 1
    43   26   28 ar
    44   27   45 1
    45   27   46 1
    46   28   29 ar
    47   29   30 ar
    48   29   47 1
    49   30   31 ar
@<TRIPOS>SUBSTRUCTURE
     1 ACP         1 GROUP 0 A     ****
@<TRIPOS>MOLECULE
[[5-(6-aminopurin-9-yl)-3,4-dihydroxy-tetrahydrofuran-2-yl]methoxy-oxido-phosphoryl]oxy-(phosphonomethyl)phosphinate
   47    49     1     0     0
SMALL
USER_CHARGES

@<TRIPOS>ATOM
      1 PG          1.5420    6.1939    0.1687 P.3       1 ACP         1.6478
      2 O1G         1.2724    6.0435   -1.2983 O.2       1 ACP        -0.9103
      3 O2G         2.9982    6.7804    0.5501 O.3       1 ACP        -0.7989
      4 O3G         1.4420    4.8337    1.0345 O.3       1 ACP        -0.7989
      5 PB         -1.4194    7.0352    1.0919 P.3       1 ACP         1.4947
      6 O1B        -1.9246    7.0299   -0.3323 O.co2     1 ACP        -0.8554
      7 O2B        -1.9771    7.9670    2.1427 O.co2     1 ACP        -0.8554
      8 C3B         0.4082    7.3109    1.0245 C.3       1 ACP        -0.6550
      9 PA         -2.5927    4.4187    1.8559 P.3       1 ACP         1.5921
     10 O1A        -3.1158    4.0380    0.4876 O.co2     1 ACP        -0.8561
     11 O2A        -3.5338    4.9255    2.9271 O.co2     1 ACP        -0.8561
     12 O3A        -1.3917    5.5091    1.6659 O.3       1 ACP        -0.8166
     13 O5'        -1.7337    3.1724    2.4754 O.3       1 ACP        -0.5737
     14 C5'        -0.8811    2.4285    1.6206 C.3       1 ACP         0.2197
     15 C4'        -0.1994    1.3333    2.4288 C.3       1 ACP         0.0944
     16 O4'        -1.1285    0.2356    2.5840 O.3       1 ACP        -0.4017
     17 C3'         1.0324    0.7610    1.7344 C.3       1 ACP         0.0859
     18 O3'         1.9175    0.2377    2.7247 O.3       1 ACP        -0.5941
     19 C2'         0.4468   -0.3802    0.9263 C.3       1 ACP         0.0924
     20 O2'         1.3993   -1.3703    0.5961 O.3       1 ACP        -0.5928
     21 C1'        -0.6159   -0.9100    1.8769 C.3       1 ACP         0.3967
     22 N9         -1.7127   -1.6108    1.2130 N.pl3     1 ACP        -0.6763
     23 C8         -2.0877   -2.9101    1.4304 C.ar      1 ACP         0.5586
     24 N7         -3.1152   -3.2613    0.6857 N.2       1 ACP        -0.5795
     25 C5         -3.4186   -2.1409   -0.0462 C.ar      1 ACP        -0.2116
     26 C6         -4.3953   -1.8809   -1.0023 C.ar      1 ACP         0.7185
     27 N6         -5.3118   -2.8767   -1.3812 N.pl3     1 ACP        -0.9442
     28 N1         -4.4538   -0.6507   -1.5667 N.ar      1 ACP        -0.8040
     29 C2         -3.5442    0.2679   -1.1609 C.ar      1 ACP         0.6560
     30 N3         -2.5561    0.1361   -0.2491 N.ar      1 ACP        -0.7058
     31 C4         -2.5568   -1.1019    0.2674 C.ar      1 ACP         0.5729
     32 HOG2        3.7978    6.2884    0.2662 H         1 ACP         0.4440
     33 HOG3        2.0366    4.0854    0.8141 H         1 ACP         0.4440
     34 H3B1        0.7344    7.3776    2.0685 H         1 ACP         0.1084
     35 H3B2        0.5446    8.3048    0.5831 H         1 ACP         0.1084
     36 H5'1       -1.4802    1.9929    0.8148 H         1 ACP         0.0281
     37 H5'2       -0.1370    3.1043    1.1873 H         1 ACP         0.0281
     38 H4'         0.0403    1.7078    3.4343 H         1 ACP         0.1082
     39 H3'         1.5906    1.4859    1.1353 H         1 ACP         0.0650
     40 HO3'        2.6839   -0.1150    2.2479 H         1 ACP         0.4300
     41 H2'        -0.0017    0.0018    0.0005 H         1 ACP         0.0785
     42 HO2'        2.0953   -0.9375    0.0709 H         1 ACP         0.4275
     43 H1'        -0.1998   -1.6319    2.6178 H         1 ACP         0.1009
     44 H8         -1.5778   -3.5473    2.1399 H         1 ACP         0.1067
     45 HN61       -5.2294   -3.7965   -0.9914 H         1 ACP         0.4213
     46 HN62       -5.9774   -2.6837   -2.1055 H         1 ACP         0.4213
     47 H2         -3.6201    1.2414   -1.6336 H         1 ACP         0.0365
@<TRIPOS>BOND
     1    1    2 2
     2    1    3 1
     3    1    4 1
     4    1    8 1
     5    3   32 1
     6    4   33 1
     7    5    6 2
     8    5    7 1
     9    5    8 1
    10    5   12 1
    11    8   34 1
    12    8   35 1
    13    9   10 2
    14    9   11 1
    15    9   12 1
    16    9   13 1
    17   13   14 1
    18   14   15 1
    19   14   36 1
    20   14   37 1
    21   15   16 1
    22   15   17 1
    23   15   38 1
    24   16   21 1
    25   17   18 1
    26   17   19 1
    27   17   39 1
    28   18   40 1
    29   19   20 1
    30   19   21 1
    31   19   41 1
    32   20   42 1
    33   21   22 1
    34   21   43 1
    35   22   23 ar
    36   22   31 ar
    37   23   24 ar
    38   23   44 1
    39   24   25 ar
    40   25   26 ar
    41   25   31 ar
    42   26   27 1
    43   26   28 ar
    44   27   45 1
    45   27   46 1
    46   28   29 ar
    47   29   30 ar
    48   29   47 1
    49   30   31 ar
@<TRIPOS>SUBSTRUCTURE
     1 ACP         1 GROUP 0 A     ****
@<TRIPOS>MOLECULE
[[5-(6-aminopurin-9-yl)-3,4-dihydroxy-tetrahydrofuran-2-yl]methoxy-oxido-phosphoryl]oxy-(phosphonomethyl)phosphinate
   47    49     1     0     0
SMALL
USER_CHARGES

@<TRIPOS>ATOM
      1 PG         -1.0472    8.6937    1.7475 P.3       1 ACP         1.6478
      2 O1G        -1.1445    8.2291    0.3256 O.2       1 ACP        -0.9103
      3 O2G        -2.4132    9.2789    2.3814 O.3       1 ACP        -0.7989
      4 O3G         0.0306    9.8654    2.0214 O.3       1 ACP        -0.7989
      5 PB         -1.5478    5.8637    3.1865 P.3       1 ACP         1.4947
      6 O1B        -2.9213    6.2833    3.6567 O.co2     1 ACP        -0.8554
      7 O2B        -0.6821    4.9077    3.9741 O.co2     1 ACP        -0.8554
      8 C3B        -0.5639    7.4072    2.9209 C.3       1 ACP        -0.6550
      9 PA         -0.4662    4.8323    0.6228 P.3       1 ACP         1.5921
     10 O1A         0.6572    5.8459    0.5874 O.co2     1 ACP        -0.8561
     11 O2A        -1.1249    4.3667   -0.6576 O.co2     1 ACP        -0.8561
     12 O3A        -1.6280    5.3822    1.6306 O.3       1 ACP        -0.8166
     13 O5'         0.0182    3.5132    1.4596 O.3       1 ACP        -0.5737
     14 C5'        -0.8811    2.4285    1.6206 C.3       1 ACP         0.2197
     15 C4'        -0.1994    1.3333    2.4288 C.3       1 ACP         0.0944
     16 O4'        -1.1285    0.2356    2.5840 O.3       1 ACP        -0.4017
     17 C3'         1.0324    0.7610    1.7344 C.3       1 ACP         0.0859
     18 O3'         1.9175    0.2377    2.7247 O.3       1 ACP        -0.5941
     19 C2'         0.4468   -0.3802    0.9263 C.3       1 ACP         0.0924
     20 O2'         1.3993   -1.3703    0.5961 O.3       1 ACP        -0.5928
     21 C1'        -0.6159   -0.9100    1.8769 C.3       1 ACP         0.3967
     22 N9         -1.7127   -1.6108    1.2130 N.pl3     1 ACP        -0.6763
     23 C8         -1.7712   -2.9546    0.9544 C.ar      1 ACP         0.5586
     24 N7         -2.8883   -3.2948    0.3462 N.2       1 ACP        -0.5795
     25 C5         -3.5834   -2.1202    0.2043 C.ar      1 ACP        -0.2116
     26 C6         -4.8225   -1.8251   -0.3554 C.ar      1 ACP         0.7185
     27 N6         -5.6154   -2.8394   -0.9189 N.pl3     1 ACP        -0.9442
     28 N1         -5.2589   -0.5425   -0.3507 N.ar      1 ACP        -0.8040
     29 C2         -4.4510    0.3913    0.2069 C.ar      1 ACP         0.6560
     30 N3         -3.2368    0.2296    0.7767 N.ar      1 ACP        -0.7058
     31 C4         -2.8684   -1.0596    0.7376 C.ar      1 ACP         0.5729
     32 HOG2       -2.8356   10.0586    1.9622 H         1 ACP         0.4440
     33 HOG3       -0.0699   10.7221    1.5546 H         1 ACP         0.4440
     34 H3B1        0.4427    7.0710    2.6475 H         1 ACP         0.1084
     35 H3B2       -0.4851    7.8846    3.9043 H         1 ACP         0.1084
     36 H5'1       -1.7769    2.7852    2.1386 H         1 ACP         0.0281
     37 H5'2       -1.1652    2.0544    0.6320 H         1 ACP         0.0281
     38 H4'         0.0403    1.7078    3.4343 H         1 ACP         0.1082
     39 H3'         1.5906    1.4859    1.1353 H         1 ACP         0.0650
     40 HO3'        2.6839   -0.1150    2.2479 H         1 ACP         0.4300
     41 H2'        -0.0017    0.0018    0.0005 H         1 ACP         0.0785
     42 HO2'        2.0953   -0.9375    0.0709 H         1 ACP         0.4275
     43 H1'        -0.1998   -1.6319    2.6178 H         1 ACP         0.1009
     44 H8         -0.9745   -3.6312    1.2318 H         1 ACP         0.1067
     45 HN61       -5.2619   -3.7766   -0.9586 H         1 ACP         0.4213
     46 HN62       -6.4834   -2.5990   -1.3590 H         1 ACP         0.4213
     47 H2         -4.8317    1.4071    0.1930 H         1 ACP         0.0365
@<TRIPOS>BOND
     1    1    2 2
     2    1    3 1
     3    1    4 1
     4    1    8 1
     5    3   32 1
     6    4   33 1
     7    5    6 2
     8    5    7 1
     9    5    8 1
    10    5   12 1
    11    8   34 1
    12    8   35 1
    13    9   10 2
    14    9   11 1
    15    9   12 1
    16    9   13 1
    17   13   14 1
    18   14   15 1
    19   14   36 1
    20   14   37 1
    21   15   16 1
    22   15   17 1
    23   15   38 1
    24   16   21 1
    25   17   18 1
    26   17   19 1
    27   17   39 1
    28   18   40 1
    29   19   20 1
    30   19   21 1
    31   19   41 1
    32   20   42 1
    33   21   22 1
    34   21   43 1
    35   22   23 ar
    36   22   31 ar
    37   23   24 ar
    38   23   44 1
    39   24   25 ar
    40   25   26 ar
    41   25   31 ar
    42   26   27 1
    43   26   28 ar
    44   27   45 1
    45   27   46 1
    46   28   29 ar
    47   29   30 ar
    48   29   47 1
    49   30   31 ar
@<TRIPOS>SUBSTRUCTURE
     1 ACP         1 GROUP 0 A     ****
@<TRIPOS>MOLECULE
[[5-(6-aminopurin-9-yl)-3,4-dihydroxy-tetrahydrofuran-2-yl]methoxy-oxido-phosphoryl]oxy-(phosphonomethyl)phosphinate
   47    49     1     0     0
SMALL
USER_CHARGES

@<TRIPOS>ATOM
      1 PG          8.8897    5.6342    0.9484 P.3       1 ACP         1.6478
      2 O1G         9.7883    5.7758    2.1400 O.2       1 ACP        -0.9103
      3 O2G         9.1850    4.3566    0.0046 O.3       1 ACP        -0.7989
      4 O3G         8.9039    6.8784   -0.0818 O.3       1 ACP        -0.7989
      5 PB          6.4777    4.0657    2.3808 P.3       1 ACP         1.4947
      6 O1B         4.9837    4.2625    2.4936 O.co2     1 ACP        -0.8554
      7 O2B         7.3692    3.9405    3.5945 O.co2     1 ACP        -0.8554
      8 C3B         7.1377    5.4544    1.3529 C.3       1 ACP        -0.6550
      9 PA          6.3565    1.2769    1.3737 P.3       1 ACP         1.5921
     10 O1A         6.7988    0.6870    2.6954 O.co2     1 ACP        -0.8561
     11 O2A         6.7715    0.6371    0.0667 O.co2     1 ACP        -0.8561
     12 O3A         6.7901    2.8512    1.3385 O.3       1 ACP        -0.8166
     13 O5'         4.7294    1.4425    1.3700 O.3       1 ACP        -0.5737
     14 C5'         4.0922    1.9801    0.2227 C.3       1 ACP         0.2197
     15 C4'         2.5944    2.0310    0.4653 C.3       1 ACP         0.0944
     16 O4'         1.9327    2.5740   -0.6889 O.3       1 ACP        -0.4017
     17 C3'         1.9685    0.6634    0.6767 C.3       1 ACP         0.0859
     18 O3'         2.1425    0.1975    1.9977 O.3       1 ACP        -0.5941
     19 C2'         0.5176    0.9128    0.3099 C.3       1 ACP         0.0924
     20 O2'        -0.2103    1.4454    1.4152 O.3       1 ACP        -0.5928
     21 C1'         0.6219    1.9765   -0.7844 C.3       1 ACP         0.3967
     22 N9          0.4237    1.4496   -2.1357 N.pl3     1 ACP        -0.6763
     23 C8          1.4026    0.9717   -2.9660 C.ar      1 ACP         0.5586
     24 N7          0.9183    0.5619   -4.1197 N.2       1 ACP        -0.5795
     25 C5         -0.4330    0.7845   -4.0331 C.ar      1 ACP        -0.2116
     26 C6         -1.4794    0.5615   -4.9225 C.ar      1 ACP         0.7185
     27 N6         -1.2378    0.0044   -6.1899 N.pl3     1 ACP        -0.9442
     28 N1         -2.7406    0.8885   -4.5512 N.ar      1 ACP        -0.8040
     29 C2         -2.9113    1.4216   -3.3172 C.ar      1 ACP         0.6560
     30 N3         -1.9824    1.6843   -2.3721 N.ar      1 ACP        -0.7058
     31 C4         -0.7613    1.3370   -2.8054 C.ar      1 ACP         0.5729
     32 HOG2       10.0658    4.2721   -0.4188 H         1 ACP         0.4440
     33 HOG3        9.7476    7.1260   -0.5163 H         1 ACP         0.4440
     34 H3B1        6.8190    6.3725    1.8592 H         1 ACP         0.1084
     35 H3B2        6.5933    5.4082    0.4028 H         1 ACP         0.1084
     36 H5'1        4.4845    2.9853    0.0383 H         1 ACP         0.0281
     37 H5'2        4.3193    1.3444   -0.6389 H         1 ACP         0.0281
     38 H4'         2.3751    2.7029    1.3156 H         1 ACP         0.1082
     39 H3'         2.4336   -0.1217   -0.0015 H         1 ACP         0.0650
     40 HO3'        3.0987    0.1465    2.1461 H         1 ACP         0.4300
     41 H2'         0.0316    0.0155   -0.0339 H         1 ACP         0.0785
     42 HO2'       -0.1608    0.7921    2.1351 H         1 ACP         0.4275
     43 H1'        -0.1474    2.7798   -0.6651 H         1 ACP         0.1009
     44 H8          2.4442    0.9470   -2.6763 H         1 ACP         0.1067
     45 HN61       -0.2955   -0.1901   -6.4713 H         1 ACP         0.4213
     46 HN62       -1.9987   -0.1045   -6.8334 H         1 ACP         0.4213
     47 H2         -3.9335    1.6716   -3.0534 H         1 ACP         0.0365
@<TRIPOS>BOND
     1    1    2 2
     2    1    3 1
     3    1    4 1
     4    1    8 1
     5    3   32 1
     6    4   33 1
     7    5    6 2
     8    5    7 1
     9    5    8 1
    10    5   12 1
    11    8   34 1
    12    8   35 1
    13    9   10 2
    14    9   11 1
    15    9   12 1
    16    9   13 1
    17   13   14 1
    18   14   15 1
    19   14   36 1
    20   14   37 1
    21   15   16 1
    22   15   17 1
    23   15   38 1
    24   16   21 1
    25   17   18 1
    26   17   19 1
    27   17   39 1
    28   18   40 1
    29   19   20 1
    30   19   21 1
    31   19   41 1
    32   20   42 1
    33   21   22 1
    34   21   43 1
    35   22   23 ar
    36   22   31 ar
    37   23   24 ar
    38   23   44 1
    39   24   25 ar
    40   25   26 ar
    41   25   31 ar
    42   26   27 1
    43   26   28 ar
    44   27   45 1
    45   27   46 1
    46   28   29 ar
    47   29   30 ar
    48   29   47 1
    49   30   31 ar
@<TRIPOS>SUBSTRUCTURE
     1 ACP         1 GROUP 0 A     ****
@<TRIPOS>MOLECULE
[[5-(6-aminopurin-9-yl)-3,4-dihydroxy-tetrahydrofuran-2-yl]methoxy-oxido-phosphoryl]oxy-(phosphonomethyl)phosphinate
   47    49     1     0     0
SMALL
USER_CHARGES

@<TRIPOS>ATOM
      1 PG         -2.7194    2.4786   -7.1054 P.3       1 ACP         1.6478
      2 O1G        -2.8067    3.1749   -5.7807 O.2       1 ACP        -0.9103
      3 O2G        -2.0043    3.3190   -8.2855 O.3       1 ACP        -0.7989
      4 O3G        -4.1335    2.0425   -7.7534 O.3       1 ACP        -0.7989
      5 PB         -0.0067    0.8372   -6.5794 P.3       1 ACP         1.4947
      6 O1B         0.7717    1.7090   -7.5373 O.co2     1 ACP        -0.8554
      7 O2B         0.3244   -0.6215   -6.3645 O.co2     1 ACP        -0.8554
      8 C3B        -1.7862    0.9314   -7.0746 C.3       1 ACP        -0.6550
      9 PA          1.0091    2.1062   -4.0966 P.3       1 ACP         1.5921
     10 O1A         1.7964    3.2163   -4.7587 O.co2     1 ACP        -0.8561
     11 O2A         1.7148    0.8952   -3.5261 O.co2     1 ACP        -0.8561
     12 O3A        -0.1376    1.5916   -5.1396 O.3       1 ACP        -0.8166
     13 O5'         0.0526    2.7390   -2.9307 O.3       1 ACP        -0.5737
     14 C5'        -0.7794    1.8744   -2.1748 C.3       1 ACP         0.2197
     15 C4'        -0.9699    2.4597   -0.7819 C.3       1 ACP         0.0944
     16 O4'        -2.1475    1.8640   -0.2014 O.3       1 ACP        -0.4017
     17 C3'         0.1697    2.1347    0.1695 C.3       1 ACP         0.0859
     18 O3'         0.1809    3.0982    1.2223 O.3       1 ACP        -0.5941
     19 C2'        -0.2543    0.7880    0.7187 C.3       1 ACP         0.0924
     20 O2'         0.3606    0.4944    1.9582 O.3       1 ACP        -0.5928
     21 C1'        -1.7682    0.9516    0.8548 C.3       1 ACP         0.3967
     22 N9         -2.5926   -0.2553    0.7436 N.pl3     1 ACP        -0.6763
     23 C8         -3.1120   -0.7726   -0.4135 C.ar      1 ACP         0.5586
     24 N7         -3.8089   -1.8688   -0.1980 N.2       1 ACP        -0.5795
     25 C5         -3.7380   -2.0700    1.1576 C.ar      1 ACP        -0.2116
     26 C6         -4.2662   -3.0526    1.9890 C.ar      1 ACP         0.7185
     27 N6         -5.0420   -4.0987    1.4609 N.pl3     1 ACP        -0.9442
     28 N1         -4.0226   -2.9899    3.3202 N.ar      1 ACP        -0.8040
     29 C2         -3.2679   -1.9585    3.7704 C.ar      1 ACP         0.6560
     30 N3         -2.7045   -0.9514    3.0680 N.ar      1 ACP        -0.7058
     31 C4         -2.9852   -1.0761    1.7622 C.ar      1 ACP         0.5729
     32 HOG2       -2.3888    4.1799   -8.5558 H         1 ACP         0.4440
     33 HOG3       -4.7983    2.7354   -7.9534 H         1 ACP         0.4440
     34 H3B1       -2.3140    0.2397   -6.4083 H         1 ACP         0.1084
     35 H3B2       -1.8389    0.5060   -8.0832 H         1 ACP         0.1084
     36 H5'1       -1.7434    1.7764   -2.6839 H         1 ACP         0.0281
     37 H5'2       -0.3052    0.8897   -2.1149 H         1 ACP         0.0281
     38 H4'        -1.1469    3.5409   -0.8522 H         1 ACP         0.1082
     39 H3'         1.1601    2.1310   -0.2934 H         1 ACP         0.0650
     40 HO3'        0.9173    2.8584    1.8048 H         1 ACP         0.4300
     41 H2'        -0.0024   -0.0091    0.0062 H         1 ACP         0.0785
     42 HO2'        0.0384   -0.3797    2.2403 H         1 ACP         0.4275
     43 H1'        -2.0584    1.4255    1.8301 H         1 ACP         0.1009
     44 H8         -2.9491   -0.3098   -1.3772 H         1 ACP         0.1067
     45 HN61       -5.2544   -4.1089    0.4813 H         1 ACP         0.4213
     46 HN62       -5.4523   -4.7699    2.0823 H         1 ACP         0.4213
     47 H2         -3.0933   -1.9395    4.8410 H         1 ACP         0.0365
@<TRIPOS>BOND
     1    1    2 2
     2    1    3 1
     3    1    4 1
     4    1    8 1
     5    3   32 1
     6    4   33 1
     7    5    6 2
     8    5    7 1
     9    5    8 1
    10    5   12 1
    11    8   34 1
    12    8   35 1
    13    9   10 2
    14    9   11 1
    15    9   12 1
    16    9   13 1
    17   13   14 1
    18   14   15 1
    19   14   36 1
    20   14   37 1
    21   15   16 1
    22   15   17 1
    23   15   38 1
    24   16   21 1
    25   17   18 1
    26   17   19 1
    27   17   39 1
    28   18   40 1
    29   19   20 1
    30   19   21 1
    31   19   41 1
    32   20   42 1
    33   21   22 1
    34   21   43 1
    35   22   23 ar
    36   22   31 ar
    37   23   24 ar
    38   23   44 1
    39   24   25 ar
    40   25   26 ar
    41   25   31 ar
    42   26   27 1
    43   26   28 ar
    44   27   45 1
    45   27   46 1
    46   28   29 ar
    47   29   30 ar
    48   29   47 1
    49   30   31 ar
@<TRIPOS>SUBSTRUCTURE
     1 ACP         1 GROUP 0 A     ****
@<TRIPOS>MOLECULE
[[5-(6-aminopurin-9-yl)-3,4-dihydroxy-tetrahydrofuran-2-yl]methoxy-oxido-phosphoryl]oxy-(phosphonomethyl)phosphinate
   47    49     1     0     0
SMALL
USER_CHARGES

@<TRIPOS>ATOM
      1 PG         -0.4064    6.0165   -6.1965 P.3       1 ACP         1.6478
      2 O1G        -1.1801    6.0155   -4.9125 O.2       1 ACP        -0.9103
      3 O2G         0.7576    7.1316   -6.3045 O.3       1 ACP        -0.7989
      4 O3G        -1.2825    6.2517   -7.5332 O.3       1 ACP        -0.7989
      5 PB         -0.3965    2.8461   -6.7245 P.3       1 ACP         1.4947
      6 O1B         0.6630    1.8060   -7.0059 O.co2     1 ACP        -0.8554
      7 O2B        -1.5782    3.0631   -7.6411 O.co2     1 ACP        -0.8554
      8 C3B         0.4659    4.4722   -6.5425 C.3       1 ACP        -0.6550
      9 PA         -1.9759    1.6544   -4.5128 P.3       1 ACP         1.5921
     10 O1A        -1.3988    0.2579   -4.5978 O.co2     1 ACP        -0.8561
     11 O2A        -3.3526    1.9544   -5.0646 O.co2     1 ACP        -0.8561
     12 O3A        -0.9122    2.6959   -5.1848 O.3       1 ACP        -0.8166
     13 O5'        -1.9208    2.1717   -2.9622 O.3       1 ACP        -0.5737
     14 C5'        -0.7794    1.8744   -2.1748 C.3       1 ACP         0.2197
     15 C4'        -0.9699    2.4597   -0.7819 C.3       1 ACP         0.0944
     16 O4'        -2.1475    1.8640   -0.2014 O.3       1 ACP        -0.4017
     17 C3'         0.1697    2.1347    0.1695 C.3       1 ACP         0.0859
     18 O3'         0.1809    3.0982    1.2223 O.3       1 ACP        -0.5941
     19 C2'        -0.2543    0.7880    0.7187 C.3       1 ACP         0.0924
     20 O2'         0.3606    0.4944    1.9582 O.3       1 ACP        -0.5928
     21 C1'        -1.7682    0.9516    0.8548 C.3       1 ACP         0.3967
     22 N9         -2.5926   -0.2553    0.7436 N.pl3     1 ACP        -0.6763
     23 C8         -2.2879   -1.3752    0.0161 C.ar      1 ACP         0.5586
     24 N7         -3.2214   -2.2987    0.1123 N.2       1 ACP        -0.5795
     25 C5         -4.1723   -1.7531    0.9377 C.ar      1 ACP        -0.2116
     26 C6         -5.3870   -2.2342    1.4159 C.ar      1 ACP         0.7185
     27 N6         -5.8433   -3.5142    1.0574 N.pl3     1 ACP        -0.9442
     28 N1         -6.1289   -1.4512    2.2356 N.ar      1 ACP        -0.8040
     29 C2         -5.6370   -0.2275    2.5461 C.ar      1 ACP         0.6560
     30 N3         -4.4810    0.3469    2.1476 N.ar      1 ACP        -0.7058
     31 C4         -3.7996   -0.4810    1.3417 C.ar      1 ACP         0.5729
     32 HOG2        0.5152    8.0796   -6.2358 H         1 ACP         0.4440
     33 HOG3       -1.7936    7.0837   -7.6260 H         1 ACP         0.4440
     34 H3B1        1.0299    4.6116   -7.4717 H         1 ACP         0.1084
     35 H3B2        1.2002    4.3332   -5.7409 H         1 ACP         0.1084
     36 H5'1       -0.6602    0.7877   -2.1203 H         1 ACP         0.0281
     37 H5'2        0.1041    2.3072   -2.6545 H         1 ACP         0.0281
     38 H4'        -1.1469    3.5409   -0.8522 H         1 ACP         0.1082
     39 H3'         1.1601    2.1310   -0.2934 H         1 ACP         0.0650
     40 HO3'        0.9173    2.8584    1.8048 H         1 ACP         0.4300
     41 H2'        -0.0024   -0.0091    0.0062 H         1 ACP         0.0785
     42 HO2'        0.0384   -0.3797    2.2403 H         1 ACP         0.4275
     43 H1'        -2.0584    1.4255    1.8301 H         1 ACP         0.1009
     44 H8         -1.3765   -1.4593   -0.5599 H         1 ACP         0.1067
     45 HN61       -5.3086   -4.0656    0.4134 H         1 ACP         0.4213
     46 HN62       -6.7426   -3.8233    1.3745 H         1 ACP         0.4213
     47 H2         -6.2570    0.3723    3.2040 H         1 ACP         0.0365
@<TRIPOS>BOND
     1    1    2 2
     2    1    3 1
     3    1    4 1
     4    1    8 1
     5    3   32 1
     6    4   33 1
     7    5    6 2
     8    5    7 1
     9    5    8 1
    10    5   12 1
    11    8   34 1
    12    8   35 1
    13    9   10 2
    14    9   11 1
    15    9   12 1
    16    9   13 1
    17   13   14 1
    18   14   15 1
    19   14   36 1
    20   14   37 1
    21   15   16 1
    22   15   17 1
    23   15   38 1
    24   16   21 1
    25   17   18 1
    26   17   19 1
    27   17   39 1
    28   18   40 1
    29   19   20 1
    30   19   21 1
    31   19   41 1
    32   20   42 1
    33   21   22 1
    34   21   43 1
    35   22   23 ar
    36   22   31 ar
    37   23   24 ar
    38   23   44 1
    39   24   25 ar
    40   25   26 ar
    41   25   31 ar
    42   26   27 1
    43   26   28 ar
    44   27   45 1
    45   27   46 1
    46   28   29 ar
    47   29   30 ar
    48   29   47 1
    49   30   31 ar
@<TRIPOS>SUBSTRUCTURE
     1 ACP         1 GROUP 0 A     ****
@<TRIPOS>MOLECULE
[[5-(6-aminopurin-9-yl)-3,4-dihydroxy-tetrahydrofuran-2-yl]methoxy-oxido-phosphoryl]oxy-(phosphonomethyl)phosphinate
   47    49     1     0     0
SMALL
USER_CHARGES

@<TRIPOS>ATOM
      1 PG         -2.5083    7.5118    5.1267 P.3       1 ACP         1.6478
      2 O1G        -3.6637    7.8424    6.0228 O.2       1 ACP        -0.9103
      3 O2G        -1.1775    8.3992    5.3543 O.3       1 ACP        -0.7989
      4 O3G        -2.7954    7.6575    3.5437 O.3       1 ACP        -0.7989
      5 PB         -0.4924    5.1526    4.2900 P.3       1 ACP         1.4947
      6 O1B        -0.2937    3.7118    4.7002 O.co2     1 ACP        -0.8554
      7 O2B         0.6213    6.1718    4.3570 O.co2     1 ACP        -0.8554
      8 C3B        -1.9063    5.8150    5.2814 C.3       1 ACP        -0.6550
      9 PA         -0.5788    5.0300    1.3263 P.3       1 ACP         1.5921
     10 O1A         0.5648    6.0081    1.1646 O.co2     1 ACP        -0.8561
     11 O2A        -1.7187    5.0058    0.3313 O.co2     1 ACP        -0.8561
     12 O3A        -1.2048    5.2086    2.8242 O.3       1 ACP        -0.8166
     13 O5'         0.0182    3.5132    1.4596 O.3       1 ACP        -0.5737
     14 C5'        -0.8811    2.4285    1.6206 C.3       1 ACP         0.2197
     15 C4'        -0.1994    1.3333    2.4288 C.3       1 ACP         0.0944
     16 O4'        -1.1285    0.2356    2.5840 O.3       1 ACP        -0.4017
     17 C3'         1.0324    0.7610    1.7344 C.3       1 ACP         0.0859
     18 O3'         1.9175    0.2377    2.7247 O.3       1 ACP        -0.5941
     19 C2'         0.4468   -0.3802    0.9263 C.3       1 ACP         0.0924
     20 O2'         1.3993   -1.3703    0.5961 O.3       1 ACP        -0.5928
     21 C1'        -0.6159   -0.9100    1.8769 C.3       1 ACP         0.3967
     22 N9         -1.7127   -1.6108    1.2130 N.pl3     1 ACP        -0.6763
     23 C8         -1.7712   -2.9546    0.9544 C.ar      1 ACP         0.5586
     24 N7         -2.8883   -3.2948    0.3462 N.2       1 ACP        -0.5795
     25 C5         -3.5834   -2.1202    0.2043 C.ar      1 ACP        -0.2116
     26 C6         -4.8225   -1.8251   -0.3554 C.ar      1 ACP         0.7185
     27 N6         -5.6154   -2.8394   -0.9189 N.pl3     1 ACP        -0.9442
     28 N1         -5.2589   -0.5425   -0.3507 N.ar      1 ACP        -0.8040
     29 C2         -4.4510    0.3913    0.2069 C.ar      1 ACP         0.6560
     30 N3         -3.2368    0.2296    0.7767 N.ar      1 ACP        -0.7058
     31 C4         -2.8684   -1.0596    0.7376 C.ar      1 ACP         0.5729
     32 HOG2       -1.2289    9.3715    5.2361 H         1 ACP         0.4440
     33 HOG3       -3.0600    8.5322    3.1873 H         1 ACP         0.4440
     34 H3B1       -1.6304    5.6560    6.3300 H         1 ACP         0.1084
     35 H3B2       -2.7548    5.1542    5.0707 H         1 ACP         0.1084
     36 H5'1       -1.7769    2.7852    2.1386 H         1 ACP         0.0281
     37 H5'2       -1.1652    2.0544    0.6320 H         1 ACP         0.0281
     38 H4'         0.0403    1.7078    3.4343 H         1 ACP         0.1082
     39 H3'         1.5906    1.4859    1.1353 H         1 ACP         0.0650
     40 HO3'        2.1521    0.9800    3.3017 H         1 ACP         0.4300
     41 H2'        -0.0017    0.0018    0.0005 H         1 ACP         0.0785
     42 HO2'        0.9369   -2.0558    0.0825 H         1 ACP         0.4275
     43 H1'        -0.1998   -1.6319    2.6178 H         1 ACP         0.1009
     44 H8         -0.9745   -3.6312    1.2318 H         1 ACP         0.1067
     45 HN61       -5.2619   -3.7766   -0.9586 H         1 ACP         0.4213
     46 HN62       -6.4834   -2.5990   -1.3590 H         1 ACP         0.4213
     47 H2         -4.8317    1.4071    0.1930 H         1 ACP         0.0365
@<TRIPOS>BOND
     1    1    2 2
     2    1    3 1
     3    1    4 1
     4    1    8 1
     5    3   32 1
     6    4   33 1
     7    5    6 2
     8    5    7 1
     9    5    8 1
    10    5   12 1
    11    8   34 1
    12    8   35 1
    13    9   10 2
    14    9   11 1
    15    9   12 1
    16    9   13 1
    17   13   14 1
    18   14   15 1
    19   14   36 1
    20   14   37 1
    21   15   16 1
    22   15   17 1
    23   15   38 1
    24   16   21 1
    25   17   18 1
    26   17   19 1
    27   17   39 1
    28   18   40 1
    29   19   20 1
    30   19   21 1
    31   19   41 1
    32   20   42 1
    33   21   22 1
    34   21   43 1
    35   22   23 ar
    36   22   31 ar
    37   23   24 ar
    38   23   44 1
    39   24   25 ar
    40   25   26 ar
    41   25   31 ar
    42   26   27 1
    43   26   28 ar
    44   27   45 1
    45   27   46 1
    46   28   29 ar
    47   29   30 ar
    48   29   47 1
    49   30   31 ar
@<TRIPOS>SUBSTRUCTURE
     1 ACP         1 GROUP 0 A     ****
@<TRIPOS>MOLECULE
[[5-(6-aminopurin-9-yl)-3,4-dihydroxy-tetrahydrofuran-2-yl]methoxy-oxido-phosphoryl]oxy-(phosphonomethyl)phosphinate
   47    49     1     0     0
SMALL
USER_CHARGES

@<TRIPOS>ATOM
      1 PG         -0.2700    7.8163    0.4198 P.3       1 ACP         1.6478
      2 O1G         0.3181    6.9785    1.5151 O.2       1 ACP        -0.9103
      3 O2G         0.7833    8.3664   -0.6748 O.3       1 ACP        -0.7989
      4 O3G        -1.0430    9.1489    0.9058 O.3       1 ACP        -0.7989
      5 PB         -3.0694    6.2670    0.1147 P.3       1 ACP         1.4947
      6 O1B        -3.8339    5.6429   -1.0296 O.co2     1 ACP        -0.8554
      7 O2B        -3.6749    7.3243    1.0085 O.co2     1 ACP        -0.8554
      8 C3B        -1.5073    6.9664   -0.5864 C.3       1 ACP        -0.6550
      9 PA         -3.0799    3.8626    1.8539 P.3       1 ACP         1.5921
     10 O1A        -3.7199    2.9140    0.8633 O.co2     1 ACP        -0.8561
     11 O2A        -3.8856    4.4438    2.9954 O.co2     1 ACP        -0.8561
     12 O3A        -2.3969    5.0932    1.0252 O.3       1 ACP        -0.8166
     13 O5'        -1.7337    3.1724    2.4754 O.3       1 ACP        -0.5737
     14 C5'        -0.8811    2.4285    1.6206 C.3       1 ACP         0.2197
     15 C4'        -0.1994    1.3333    2.4288 C.3       1 ACP         0.0944
     16 O4'        -1.1285    0.2356    2.5840 O.3       1 ACP        -0.4017
     17 C3'         1.0324    0.7610    1.7344 C.3       1 ACP         0.0859
     18 O3'         1.9175    0.2377    2.7247 O.3       1 ACP        -0.5941
     19 C2'         0.4468   -0.3802    0.9263 C.3       1 ACP         0.0924
     20 O2'         1.3993   -1.3703    0.5961 O.3       1 ACP        -0.5928
     21 C1'        -0.6159   -0.9100    1.8769 C.3       1 ACP         0.3967
     22 N9         -1.7127   -1.6108    1.2130 N.pl3     1 ACP        -0.6763
     23 C8         -2.0877   -2.9101    1.4304 C.ar      1 ACP         0.5586
     24 N7         -3.1152   -3.2613    0.6857 N.2       1 ACP        -0.5795
     25 C5         -3.4186   -2.1409   -0.0462 C.ar      1 ACP        -0.2116
     26 C6         -4.3953   -1.8809   -1.0023 C.ar      1 ACP         0.7185
     27 N6         -5.3118   -2.8767   -1.3812 N.pl3     1 ACP        -0.9442
     28 N1         -4.4538   -0.6507   -1.5667 N.ar      1 ACP        -0.8040
     29 C2         -3.5442    0.2679   -1.1609 C.ar      1 ACP         0.6560
     30 N3         -2.5561    0.1361   -0.2491 N.ar      1 ACP        -0.7058
     31 C4         -2.5568   -1.1019    0.2674 C.ar      1 ACP         0.5729
     32 HOG2        1.5193    8.9429   -0.3780 H         1 ACP         0.4440
     33 HOG3       -0.5475    9.8282    1.4108 H         1 ACP         0.4440
     34 H3B1       -1.8228    7.6573   -1.3764 H         1 ACP         0.1084
     35 H3B2       -0.9991    6.1293   -1.0784 H         1 ACP         0.1084
     36 H5'1       -1.4802    1.9929    0.8148 H         1 ACP         0.0281
     37 H5'2       -0.1370    3.1043    1.1873 H         1 ACP         0.0281
     38 H4'         0.0403    1.7078    3.4343 H         1 ACP         0.1082
     39 H3'         1.5906    1.4859    1.1353 H         1 ACP         0.0650
     40 HO3'        2.6839   -0.1150    2.2479 H         1 ACP         0.4300
     41 H2'        -0.0017    0.0018    0.0005 H         1 ACP         0.0785
     42 HO2'        2.0953   -0.9375    0.0709 H         1 ACP         0.4275
     43 H1'        -0.1998   -1.6319    2.6178 H         1 ACP         0.1009
     44 H8         -1.5778   -3.5473    2.1399 H         1 ACP         0.1067
     45 HN61       -5.2294   -3.7965   -0.9914 H         1 ACP         0.4213
     46 HN62       -5.9774   -2.6837   -2.1055 H         1 ACP         0.4213
     47 H2         -3.6201    1.2414   -1.6336 H         1 ACP         0.0365
@<TRIPOS>BOND
     1    1    2 2
     2    1    3 1
     3    1    4 1
     4    1    8 1
     5    3   32 1
     6    4   33 1
     7    5    6 2
     8    5    7 1
     9    5    8 1
    10    5   12 1
    11    8   34 1
    12    8   35 1
    13    9   10 2
    14    9   11 1
    15    9   12 1
    16    9   13 1
    17   13   14 1
    18   14   15 1
    19   14   36 1
    20   14   37 1
    21   15   16 1
    22   15   17 1
    23   15   38 1
    24   16   21 1
    25   17   18 1
    26   17   19 1
    27   17   39 1
    28   18   40 1
    29   19   20 1
    30   19   21 1
    31   19   41 1
    32   20   42 1
    33   21   22 1
    34   21   43 1
    35   22   23 ar
    36   22   31 ar
    37   23   24 ar
    38   23   44 1
    39   24   25 ar
    40   25   26 ar
    41   25   31 ar
    42   26   27 1
    43   26   28 ar
    44   27   45 1
    45   27   46 1
    46   28   29 ar
    47   29   30 ar
    48   29   47 1
    49   30   31 ar
@<TRIPOS>SUBSTRUCTURE
     1 ACP         1 GROUP 0 A     ****
@<TRIPOS>MOLECULE
[[5-(6-aminopurin-9-yl)-3,4-dihydroxy-tetrahydrofuran-2-yl]methoxy-oxido-phosphoryl]oxy-(phosphonomethyl)phosphinate
   47    49     1     0     0
SMALL
USER_CHARGES

@<TRIPOS>ATOM
      1 PG          0.3520    5.8039   -2.9133 P.3       1 ACP         1.6478
      2 O1G         0.6358    5.2907   -4.2929 O.2       1 ACP        -0.9103
      3 O2G         0.7230    7.3559   -2.6601 O.3       1 ACP        -0.7989
      4 O3G         1.1139    5.0315   -1.7164 O.3       1 ACP        -0.7989
      5 PB         -2.0014    6.2748   -0.7755 P.3       1 ACP         1.4947
      6 O1B        -3.4929    6.0335   -0.7474 O.co2     1 ACP        -0.8554
      7 O2B        -1.3988    7.6355   -0.5127 O.co2     1 ACP        -0.8554
      8 C3B        -1.3852    5.7082   -2.4248 C.3       1 ACP        -0.6550
      9 PA         -1.0481    5.0552    1.7563 P.3       1 ACP         1.5921
     10 O1A        -2.4051    4.8656    2.3989 O.co2     1 ACP        -0.8561
     11 O2A        -0.1393    6.1836    2.1932 O.co2     1 ACP        -0.8561
     12 O3A        -1.2504    5.1524    0.1385 O.3       1 ACP        -0.8166
     13 O5'        -0.2059    3.6558    1.8419 O.3       1 ACP        -0.5737
     14 C5'        -0.8811    2.4285    1.6206 C.3       1 ACP         0.2197
     15 C4'        -0.1994    1.3333    2.4288 C.3       1 ACP         0.0944
     16 O4'        -1.1285    0.2356    2.5840 O.3       1 ACP        -0.4017
     17 C3'         1.0324    0.7610    1.7344 C.3       1 ACP         0.0859
     18 O3'         1.9175    0.2377    2.7247 O.3       1 ACP        -0.5941
     19 C2'         0.4468   -0.3802    0.9263 C.3       1 ACP         0.0924
     20 O2'         1.3993   -1.3703    0.5961 O.3       1 ACP        -0.5928
     21 C1'        -0.6159   -0.9100    1.8769 C.3       1 ACP         0.3967
     22 N9         -1.7127   -1.6108    1.2130 N.pl3     1 ACP        -0.6763
     23 C8         -2.0877   -2.9101    1.4304 C.ar      1 ACP         0.5586
     24 N7         -3.1152   -3.2613    0.6857 N.2       1 ACP        -0.5795
     25 C5         -3.4186   -2.1409   -0.0462 C.ar      1 ACP        -0.2116
     26 C6         -4.3953   -1.8809   -1.0023 C.ar      1 ACP         0.7185
     27 N6         -5.3118   -2.8767   -1.3812 N.pl3     1 ACP        -0.9442
     28 N1         -4.4538   -0.6507   -1.5667 N.ar      1 ACP        -0.8040
     29 C2         -3.5442    0.2679   -1.1609 C.ar      1 ACP         0.6560
     30 N3         -2.5561    0.1361   -0.2491 N.ar      1 ACP        -0.7058
     31 C4         -2.5568   -1.1019    0.2674 C.ar      1 ACP         0.5729
     32 HOG2        1.6523    7.6473   -2.7767 H         1 ACP         0.4440
     33 HOG3        2.0946    5.0168   -1.7088 H         1 ACP         0.4440
     34 H3B1       -1.9684    6.2678   -3.1649 H         1 ACP         0.1084
     35 H3B2       -1.6841    4.6573   -2.5109 H         1 ACP         0.1084
     36 H5'1       -1.9255    2.5383    1.9294 H         1 ACP         0.0281
     37 H5'2       -0.8472    2.1934    0.5521 H         1 ACP         0.0281
     38 H4'         0.0403    1.7078    3.4343 H         1 ACP         0.1082
     39 H3'         1.5906    1.4859    1.1353 H         1 ACP         0.0650
     40 HO3'        2.6839   -0.1150    2.2479 H         1 ACP         0.4300
     41 H2'        -0.0017    0.0018    0.0005 H         1 ACP         0.0785
     42 HO2'        2.0953   -0.9375    0.0709 H         1 ACP         0.4275
     43 H1'        -0.1998   -1.6319    2.6178 H         1 ACP         0.1009
     44 H8         -1.5778   -3.5473    2.1399 H         1 ACP         0.1067
     45 HN61       -5.2294   -3.7965   -0.9914 H         1 ACP         0.4213
     46 HN62       -5.9774   -2.6837   -2.1055 H         1 ACP         0.4213
     47 H2         -3.6201    1.2414   -1.6336 H         1 ACP         0.0365
@<TRIPOS>BOND
     1    1    2 2
     2    1    3 1
     3    1    4 1
     4    1    8 1
     5    3   32 1
     6    4   33 1
     7    5    6 2
     8    5    7 1
     9    5    8 1
    10    5   12 1
    11    8   34 1
    12    8   35 1
    13    9   10 2
    14    9   11 1
    15    9   12 1
    16    9   13 1
    17   13   14 1
    18   14   15 1
    19   14   36 1
    20   14   37 1
    21   15   16 1
    22   15   17 1
    23   15   38 1
    24   16   21 1
    25   17   18 1
    26   17   19 1
    27   17   39 1
    28   18   40 1
    29   19   20 1
    30   19   21 1
    31   19   41 1
    32   20   42 1
    33   21   22 1
    34   21   43 1
    35   22   23 ar
    36   22   31 ar
    37   23   24 ar
    38   23   44 1
    39   24   25 ar
    40   25   26 ar
    41   25   31 ar
    42   26   27 1
    43   26   28 ar
    44   27   45 1
    45   27   46 1
    46   28   29 ar
    47   29   30 ar
    48   29   47 1
    49   30   31 ar
@<TRIPOS>SUBSTRUCTURE
     1 ACP         1 GROUP 0 A     ****
@<TRIPOS>MOLECULE
[[5-(6-aminopurin-9-yl)-3,4-dihydroxy-tetrahydrofuran-2-yl]methoxy-oxido-phosphoryl]oxy-(phosphonomethyl)phosphinate
   47    49     1     0     0
SMALL
USER_CHARGES

@<TRIPOS>ATOM
      1 PG          5.9340   -1.1919   -2.7275 P.3       1 ACP         1.6478
      2 O1G         4.7383   -0.4375   -2.2291 O.2       1 ACP        -0.9103
      3 O2G         6.9618   -0.3405   -3.6378 O.3       1 ACP        -0.7989
      4 O3G         5.6069   -2.4876   -3.6352 O.3       1 ACP        -0.7989
      5 PB          7.8244   -0.7978   -0.1582 P.3       1 ACP         1.4947
      6 O1B         8.7284    0.1584   -0.9012 O.co2     1 ACP        -0.8554
      7 O2B         8.3368   -1.7120    0.9305 O.co2     1 ACP        -0.8554
      8 C3B         6.9913   -1.8596   -1.4229 C.3       1 ACP        -0.6550
      9 PA          6.3565    1.2769    1.3737 P.3       1 ACP         1.5921
     10 O1A         6.9863    2.4835    0.7118 O.co2     1 ACP        -0.8561
     11 O2A         6.7864    0.8458    2.7591 O.co2     1 ACP        -0.8561
     12 O3A         6.5021   -0.0008    0.3670 O.3       1 ACP        -0.8166
     13 O5'         4.7294    1.4425    1.3700 O.3       1 ACP        -0.5737
     14 C5'         4.0922    1.9801    0.2227 C.3       1 ACP         0.2197
     15 C4'         2.5944    2.0310    0.4653 C.3       1 ACP         0.0944
     16 O4'         1.9327    2.5740   -0.6889 O.3       1 ACP        -0.4017
     17 C3'         1.9685    0.6634    0.6767 C.3       1 ACP         0.0859
     18 O3'         2.1425    0.1975    1.9977 O.3       1 ACP        -0.5941
     19 C2'         0.5176    0.9128    0.3099 C.3       1 ACP         0.0924
     20 O2'        -0.2103    1.4454    1.4152 O.3       1 ACP        -0.5928
     21 C1'         0.6219    1.9765   -0.7844 C.3       1 ACP         0.3967
     22 N9          0.4237    1.4496   -2.1357 N.pl3     1 ACP        -0.6763
     23 C8          1.4026    0.9717   -2.9660 C.ar      1 ACP         0.5586
     24 N7          0.9183    0.5619   -4.1197 N.2       1 ACP        -0.5795
     25 C5         -0.4330    0.7845   -4.0331 C.ar      1 ACP        -0.2116
     26 C6         -1.4794    0.5615   -4.9225 C.ar      1 ACP         0.7185
     27 N6         -1.2378    0.0044   -6.1899 N.pl3     1 ACP        -0.9442
     28 N1         -2.7406    0.8885   -4.5512 N.ar      1 ACP        -0.8040
     29 C2         -2.9113    1.4216   -3.3172 C.ar      1 ACP         0.6560
     30 N3         -1.9824    1.6843   -2.3721 N.ar      1 ACP        -0.7058
     31 C4         -0.7613    1.3370   -2.8054 C.ar      1 ACP         0.5729
     32 HOG2        6.6374    0.0608   -4.4720 H         1 ACP         0.4440
     33 HOG3        5.1039   -2.3690   -4.4689 H         1 ACP         0.4440
     34 H3B1        6.3976   -2.5839   -0.8539 H         1 ACP         0.1084
     35 H3B2        7.7926   -2.4211   -1.9167 H         1 ACP         0.1084
     36 H5'1        4.4845    2.9853    0.0383 H         1 ACP         0.0281
     37 H5'2        4.3193    1.3444   -0.6389 H         1 ACP         0.0281
     38 H4'         2.3751    2.7029    1.3156 H         1 ACP         0.1082
     39 H3'         2.4336   -0.1217   -0.0015 H         1 ACP         0.0650
     40 HO3'        3.0987    0.1465    2.1461 H         1 ACP         0.4300
     41 H2'         0.0316    0.0155   -0.0339 H         1 ACP         0.0785
     42 HO2'       -0.1608    0.7921    2.1351 H         1 ACP         0.4275
     43 H1'        -0.1474    2.7798   -0.6651 H         1 ACP         0.1009
     44 H8          2.4442    0.9470   -2.6763 H         1 ACP         0.1067
     45 HN61       -0.2955   -0.1901   -6.4713 H         1 ACP         0.4213
     46 HN62       -1.9987   -0.1045   -6.8334 H         1 ACP         0.4213
     47 H2         -3.9335    1.6716   -3.0534 H         1 ACP         0.0365
@<TRIPOS>BOND
     1    1    2 2
     2    1    3 1
     3    1    4 1
     4    1    8 1
     5    3   32 1
     6    4   33 1
     7    5    6 2
     8    5    7 1
     9    5    8 1
    10    5   12 1
    11    8   34 1
    12    8   35 1
    13    9   10 2
    14    9   11 1
    15    9   12 1
    16    9   13 1
    17   13   14 1
    18   14   15 1
    19   14   36 1
    20   14   37 1
    21   15   16 1
    22   15   17 1
    23   15   38 1
    24   16   21 1
    25   17   18 1
    26   17   19 1
    27   17   39 1
    28   18   40 1
    29   19   20 1
    30   19   21 1
    31   19   41 1
    32   20   42 1
    33   21   22 1
    34   21   43 1
    35   22   23 ar
    36   22   31 ar
    37   23   24 ar
    38   23   44 1
    39   24   25 ar
    40   25   26 ar
    41   25   31 ar
    42   26   27 1
    43   26   28 ar
    44   27   45 1
    45   27   46 1
    46   28   29 ar
    47   29   30 ar
    48   29   47 1
    49   30   31 ar
@<TRIPOS>SUBSTRUCTURE
     1 ACP         1 GROUP 0 A     ****
@<TRIPOS>MOLECULE
[[5-(6-aminopurin-9-yl)-3,4-dihydroxy-tetrahydrofuran-2-yl]methoxy-oxido-phosphoryl]oxy-(phosphonomethyl)phosphinate
   47    49     1     0     0
SMALL
USER_CHARGES

@<TRIPOS>ATOM
      1 PG          2.7953   -2.2853   -5.2108 P.3       1 ACP         1.6478
      2 O1G         4.0363   -1.8127   -5.9064 O.2       1 ACP        -0.9103
      3 O2G         2.6178   -3.8886   -5.1212 O.3       1 ACP        -0.7989
      4 O3G         1.4035   -1.7852   -5.8609 O.3       1 ACP        -0.7989
      5 PB          2.6171    0.0215   -2.9799 P.3       1 ACP         1.4947
      6 O1B         3.9076    0.6520   -3.4496 O.co2     1 ACP        -0.8554
      7 O2B         2.1756    0.0666   -1.5354 O.co2     1 ACP        -0.8554
      8 C3B         2.6586   -1.7564   -3.4883 C.3       1 ACP        -0.6550
      9 PA          0.8118    1.9901   -4.2726 P.3       1 ACP         1.5921
     10 O1A        -0.4259    1.8446   -5.1315 O.co2     1 ACP        -0.8561
     11 O2A         1.9622    2.8653   -4.7205 O.co2     1 ACP        -0.8561
     12 O3A         1.3938    0.4993   -3.9465 O.3       1 ACP        -0.8166
     13 O5'         0.3757    2.4482   -2.7643 O.3       1 ACP        -0.5737
     14 C5'        -0.7794    1.8744   -2.1748 C.3       1 ACP         0.2197
     15 C4'        -0.9699    2.4597   -0.7819 C.3       1 ACP         0.0944
     16 O4'        -2.1475    1.8640   -0.2014 O.3       1 ACP        -0.4017
     17 C3'         0.1697    2.1347    0.1695 C.3       1 ACP         0.0859
     18 O3'         0.1809    3.0982    1.2223 O.3       1 ACP        -0.5941
     19 C2'        -0.2543    0.7880    0.7187 C.3       1 ACP         0.0924
     20 O2'         0.3606    0.4944    1.9582 O.3       1 ACP        -0.5928
     21 C1'        -1.7682    0.9516    0.8548 C.3       1 ACP         0.3967
     22 N9         -2.5926   -0.2553    0.7436 N.pl3     1 ACP        -0.6763
     23 C8         -3.5599   -0.4866   -0.1983 C.ar      1 ACP         0.5586
     24 N7         -4.1294   -1.6639   -0.0461 N.2       1 ACP        -0.5795
     25 C5         -3.5041   -2.2191    1.0420 C.ar      1 ACP        -0.2116
     26 C6         -3.6604   -3.4390    1.6925 C.ar      1 ACP         0.7185
     27 N6         -4.6108   -4.3735    1.2468 N.pl3     1 ACP        -0.9442
     28 N1         -2.8820   -3.7179    2.7657 N.ar      1 ACP        -0.8040
     29 C2         -1.9837   -2.7784    3.1481 C.ar      1 ACP         0.6560
     30 N3         -1.7408   -1.5668    2.6022 N.ar      1 ACP        -0.7058
     31 C4         -2.5438   -1.3578    1.5483 C.ar      1 ACP         0.5729
     32 HOG2        2.5720   -4.4087   -5.9516 H         1 ACP         0.4440
     33 HOG3        1.1981   -2.0282   -6.7887 H         1 ACP         0.4440
     34 H3B1        1.7456   -2.2014   -3.0769 H         1 ACP         0.1084
     35 H3B2        3.5022   -2.2021   -2.9490 H         1 ACP         0.1084
     36 H5'1       -1.6462    2.0968   -2.8052 H         1 ACP         0.0281
     37 H5'2       -0.6469    0.7893   -2.1194 H         1 ACP         0.0281
     38 H4'        -1.1469    3.5409   -0.8522 H         1 ACP         0.1082
     39 H3'         1.1601    2.1310   -0.2934 H         1 ACP         0.0650
     40 HO3'        0.9173    2.8584    1.8048 H         1 ACP         0.4300
     41 H2'        -0.0024   -0.0091    0.0062 H         1 ACP         0.0785
     42 HO2'        0.0384   -0.3797    2.2403 H         1 ACP         0.4275
     43 H1'        -2.0584    1.4255    1.8301 H         1 ACP         0.1009
     44 H8         -3.8030    0.2355   -0.9657 H         1 ACP         0.1067
     45 HN61       -5.2130   -4.1372    0.4810 H         1 ACP         0.4213
     46 HN62       -4.7404   -5.2263    1.7576 H         1 ACP         0.4213
     47 H2         -1.3778   -3.0348    4.0107 H         1 ACP         0.0365
@<TRIPOS>BOND
     1    1    2 2
     2    1    3 1
     3    1    4 1
     4    1    8 1
     5    3   32 1
     6    4   33 1
     7    5    6 2
     8    5    7 1
     9    5    8 1
    10    5   12 1
    11    8   34 1
    12    8   35 1
    13    9   10 2
    14    9   11 1
    15    9   12 1
    16    9   13 1
    17   13   14 1
    18   14   15 1
    19   14   36 1
    20   14   37 1
    21   15   16 1
    22   15   17 1
    23   15   38 1
    24   16   21 1
    25   17   18 1
    26   17   19 1
    27   17   39 1
    28   18   40 1
    29   19   20 1
    30   19   21 1
    31   19   41 1
    32   20   42 1
    33   21   22 1
    34   21   43 1
    35   22   23 ar
    36   22   31 ar
    37   23   24 ar
    38   23   44 1
    39   24   25 ar
    40   25   26 ar
    41   25   31 ar
    42   26   27 1
    43   26   28 ar
    44   27   45 1
    45   27   46 1
    46   28   29 ar
    47   29   30 ar
    48   29   47 1
    49   30   31 ar
@<TRIPOS>SUBSTRUCTURE
     1 ACP         1 GROUP 0 A     ****
@<TRIPOS>MOLECULE
[[5-(6-aminopurin-9-yl)-3,4-dihydroxy-tetrahydrofuran-2-yl]methoxy-oxido-phosphoryl]oxy-(phosphonomethyl)phosphinate
   47    49     1     0     0
SMALL
USER_CHARGES

@<TRIPOS>ATOM
      1 PG          1.5457    5.7646   -3.2187 P.3       1 ACP         1.6478
      2 O1G         1.3373    5.9162   -1.7419 O.2       1 ACP        -0.9103
      3 O2G         1.9430    4.2792   -3.7146 O.3       1 ACP        -0.7989
      4 O3G         2.7000    6.6986   -3.8550 O.3       1 ACP        -0.7989
      5 PB         -1.5157    5.2678   -4.0619 P.3       1 ACP         1.4947
      6 O1B        -2.4701    5.8833   -5.0588 O.co2     1 ACP        -0.8554
      7 O2B        -1.8364    5.1762   -2.5880 O.co2     1 ACP        -0.8554
      8 C3B         0.0955    6.1620   -4.2210 C.3       1 ACP        -0.6550
      9 PA         -1.7483    2.3548   -4.5782 P.3       1 ACP         1.5921
     10 O1A        -0.7754    1.3199   -5.1006 O.co2     1 ACP        -0.8561
     11 O2A        -3.1254    2.4959   -5.1896 O.co2     1 ACP        -0.8561
     12 O3A        -1.0174    3.8151   -4.6099 O.3       1 ACP        -0.8166
     13 O5'        -1.9208    2.1717   -2.9622 O.3       1 ACP        -0.5737
     14 C5'        -0.7794    1.8744   -2.1748 C.3       1 ACP         0.2197
     15 C4'        -0.9699    2.4597   -0.7819 C.3       1 ACP         0.0944
     16 O4'        -2.1475    1.8640   -0.2014 O.3       1 ACP        -0.4017
     17 C3'         0.1697    2.1347    0.1695 C.3       1 ACP         0.0859
     18 O3'         0.1809    3.0982    1.2223 O.3       1 ACP        -0.5941
     19 C2'        -0.2543    0.7880    0.7187 C.3       1 ACP         0.0924
     20 O2'         0.3606    0.4944    1.9582 O.3       1 ACP        -0.5928
     21 C1'        -1.7682    0.9516    0.8548 C.3       1 ACP         0.3967
     22 N9         -2.5926   -0.2553    0.7436 N.pl3     1 ACP        -0.6763
     23 C8         -2.2879   -1.3752    0.0161 C.ar      1 ACP         0.5586
     24 N7         -3.2214   -2.2987    0.1123 N.2       1 ACP        -0.5795
     25 C5         -4.1723   -1.7531    0.9377 C.ar      1 ACP        -0.2116
     26 C6         -5.3870   -2.2342    1.4159 C.ar      1 ACP         0.7185
     27 N6         -5.8433   -3.5142    1.0574 N.pl3     1 ACP        -0.9442
     28 N1         -6.1289   -1.4512    2.2356 N.ar      1 ACP        -0.8040
     29 C2         -5.6370   -0.2275    2.5461 C.ar      1 ACP         0.6560
     30 N3         -4.4810    0.3469    2.1476 N.ar      1 ACP        -0.7058
     31 C4         -3.7996   -0.4810    1.3417 C.ar      1 ACP         0.5729
     32 HOG2        2.7638    3.8671   -3.3703 H         1 ACP         0.4440
     33 HOG3        3.6203    6.6051   -3.5290 H         1 ACP         0.4440
     34 H3B1       -0.1383    7.2204   -4.0599 H         1 ACP         0.1084
     35 H3B2        0.3936    6.0568   -5.2704 H         1 ACP         0.1084
     36 H5'1       -0.6602    0.7877   -2.1203 H         1 ACP         0.0281
     37 H5'2        0.1041    2.3072   -2.6545 H         1 ACP         0.0281
     38 H4'        -1.1469    3.5409   -0.8522 H         1 ACP         0.1082
     39 H3'         1.1601    2.1310   -0.2934 H         1 ACP         0.0650
     40 HO3'        0.9173    2.8584    1.8048 H         1 ACP         0.4300
     41 H2'        -0.0024   -0.0091    0.0062 H         1 ACP         0.0785
     42 HO2'        0.0384   -0.3797    2.2403 H         1 ACP         0.4275
     43 H1'        -2.0584    1.4255    1.8301 H         1 ACP         0.1009
     44 H8         -1.3765   -1.4593   -0.5599 H         1 ACP         0.1067
     45 HN61       -5.3086   -4.0656    0.4134 H         1 ACP         0.4213
     46 HN62       -6.7426   -3.8233    1.3745 H         1 ACP         0.4213
     47 H2         -6.2570    0.3723    3.2040 H         1 ACP         0.0365
@<TRIPOS>BOND
     1    1    2 2
     2    1    3 1
     3    1    4 1
     4    1    8 1
     5    3   32 1
     6    4   33 1
     7    5    6 2
     8    5    7 1
     9    5    8 1
    10    5   12 1
    11    8   34 1
    12    8   35 1
    13    9   10 2
    14    9   11 1
    15    9   12 1
    16    9   13 1
    17   13   14 1
    18   14   15 1
    19   14   36 1
    20   14   37 1
    21   15   16 1
    22   15   17 1
    23   15   38 1
    24   16   21 1
    25   17   18 1
    26   17   19 1
    27   17   39 1
    28   18   40 1
    29   19   20 1
    30   19   21 1
    31   19   41 1
    32   20   42 1
    33   21   22 1
    34   21   43 1
    35   22   23 ar
    36   22   31 ar
    37   23   24 ar
    38   23   44 1
    39   24   25 ar
    40   25   26 ar
    41   25   31 ar
    42   26   27 1
    43   26   28 ar
    44   27   45 1
    45   27   46 1
    46   28   29 ar
    47   29   30 ar
    48   29   47 1
    49   30   31 ar
@<TRIPOS>SUBSTRUCTURE
     1 ACP         1 GROUP 0 A     ****
@<TRIPOS>MOLECULE
[[5-(6-aminopurin-9-yl)-3,4-dihydroxy-tetrahydrofuran-2-yl]methoxy-oxido-phosphoryl]oxy-(phosphonomethyl)phosphinate
   47    49     1     0     0
SMALL
USER_CHARGES

@<TRIPOS>ATOM
      1 PG          0.2992    6.5235   -3.1353 P.3       1 ACP         1.6478
      2 O1G         0.4108    6.0238   -4.5442 O.2       1 ACP        -0.9103
      3 O2G        -1.2050    6.6390   -2.5569 O.3       1 ACP        -0.7989
      4 O3G         0.9217    7.9903   -2.8690 O.3       1 ACP        -0.7989
      5 PB          0.7053    3.7167   -1.6230 P.3       1 ACP         1.4947
      6 O1B         1.6169    3.2051   -0.5318 O.co2     1 ACP        -0.8554
      7 O2B         0.6140    3.0511   -2.9766 O.co2     1 ACP        -0.8554
      8 C3B         1.1362    5.4924   -1.9099 C.3       1 ACP        -0.6550
      9 PA         -1.9976    2.8864   -0.7224 P.3       1 ACP         1.5921
     10 O1A        -2.2799    2.1137   -1.9928 O.co2     1 ACP        -0.8561
     11 O2A        -3.1098    3.6160   -0.0008 O.co2     1 ACP        -0.8561
     12 O3A        -0.7917    3.9473   -1.0190 O.3       1 ACP        -0.8166
     13 O5'        -1.2434    1.9101    0.3513 O.3       1 ACP        -0.5737
     14 C5'        -0.8811    2.4285    1.6206 C.3       1 ACP         0.2197
     15 C4'        -0.1994    1.3333    2.4288 C.3       1 ACP         0.0944
     16 O4'        -1.1285    0.2356    2.5840 O.3       1 ACP        -0.4017
     17 C3'         1.0324    0.7610    1.7344 C.3       1 ACP         0.0859
     18 O3'         1.9175    0.2377    2.7247 O.3       1 ACP        -0.5941
     19 C2'         0.4468   -0.3802    0.9263 C.3       1 ACP         0.0924
     20 O2'         1.3993   -1.3703    0.5961 O.3       1 ACP        -0.5928
     21 C1'        -0.6159   -0.9100    1.8769 C.3       1 ACP         0.3967
     22 N9         -1.7127   -1.6108    1.2130 N.pl3     1 ACP        -0.6763
     23 C8         -2.8641   -1.0399    0.7392 C.ar      1 ACP         0.5586
     24 N7         -3.6659   -1.9257    0.1858 N.2       1 ACP        -0.5795
     25 C5         -3.0053   -3.1223    0.3069 C.ar      1 ACP        -0.2116
     26 C6         -3.3321   -4.4178   -0.0813 C.ar      1 ACP         0.7185
     27 N6         -4.5476   -4.6866   -0.7335 N.pl3     1 ACP        -0.9442
     28 N1         -2.4608   -5.4225    0.1773 N.ar      1 ACP        -0.8040
     29 C2         -1.3053   -5.1020    0.8081 C.ar      1 ACP         0.6560
     30 N3         -0.8788   -3.8921    1.2315 N.ar      1 ACP        -0.7058
     31 C4         -1.7870   -2.9477    0.9438 C.ar      1 ACP         0.5729
     32 HOG2       -1.8448    7.2273   -3.0114 H         1 ACP         0.4440
     33 HOG3        0.5619    8.7563   -3.3647 H         1 ACP         0.4440
     34 H3B1        2.2064    5.5011   -2.1455 H         1 ACP         0.1084
     35 H3B2        1.0186    5.9891   -0.9400 H         1 ACP         0.1084
     36 H5'1       -0.2035    3.2759    1.4765 H         1 ACP         0.0281
     37 H5'2       -1.7842    2.7761    2.1320 H         1 ACP         0.0281
     38 H4'         0.0403    1.7078    3.4343 H         1 ACP         0.1082
     39 H3'         1.5906    1.4859    1.1353 H         1 ACP         0.0650
     40 HO3'        2.6839   -0.1150    2.2479 H         1 ACP         0.4300
     41 H2'        -0.0017    0.0018    0.0005 H         1 ACP         0.0785
     42 HO2'        2.0953   -0.9375    0.0709 H         1 ACP         0.4275
     43 H1'        -0.1998   -1.6319    2.6178 H         1 ACP         0.1009
     44 H8         -3.0609    0.0200    0.8250 H         1 ACP         0.1067
     45 HN61       -5.2046   -3.9433   -0.8775 H         1 ACP         0.4213
     46 HN62       -4.7849   -5.6332   -0.9625 H         1 ACP         0.4213
     47 H2         -0.6318   -5.9307    0.9993 H         1 ACP         0.0365
@<TRIPOS>BOND
     1    1    2 2
     2    1    3 1
     3    1    4 1
     4    1    8 1
     5    3   32 1
     6    4   33 1
     7    5    6 2
     8    5    7 1
     9    5    8 1
    10    5   12 1
    11    8   34 1
    12    8   35 1
    13    9   10 2
    14    9   11 1
    15    9   12 1
    16    9   13 1
    17   13   14 1
    18   14   15 1
    19   14   36 1
    20   14   37 1
    21   15   16 1
    22   15   17 1
    23   15   38 1
    24   16   21 1
    25   17   18 1
    26   17   19 1
    27   17   39 1
    28   18   40 1
    29   19   20 1
    30   19   21 1
    31   19   41 1
    32   20   42 1
    33   21   22 1
    34   21   43 1
    35   22   23 ar
    36   22   31 ar
    37   23   24 ar
    38   23   44 1
    39   24   25 ar
    40   25   26 ar
    41   25   31 ar
    42   26   27 1
    43   26   28 ar
    44   27   45 1
    45   27   46 1
    46   28   29 ar
    47   29   30 ar
    48   29   47 1
    49   30   31 ar
@<TRIPOS>SUBSTRUCTURE
     1 ACP         1 GROUP 0 A     ****
@<TRIPOS>MOLECULE
[[5-(6-aminopurin-9-yl)-3,4-dihydroxy-tetrahydrofuran-2-yl]methoxy-oxido-phosphoryl]oxy-(phosphonomethyl)phosphinate
   47    49     1     0     0
SMALL
USER_CHARGES

@<TRIPOS>ATOM
      1 PG         -3.3972    4.0329    5.0887 P.3       1 ACP         1.6478
      2 O1G        -4.5473    4.2400    6.0277 O.2       1 ACP        -0.9103
      3 O2G        -3.7483    4.1797    3.5185 O.3       1 ACP        -0.7989
      4 O3G        -2.6768    2.5901    5.1832 O.3       1 ACP        -0.7989
      5 PB         -0.4924    5.1526    4.2900 P.3       1 ACP         1.4947
      6 O1B         0.1458    3.7974    4.4899 O.co2     1 ACP        -0.8554
      7 O2B         0.2535    6.4417    4.5460 O.co2     1 ACP        -0.8554
      8 C3B        -2.0297    5.1917    5.3176 C.3       1 ACP        -0.6550
      9 PA         -0.5788    5.0300    1.3263 P.3       1 ACP         1.5921
     10 O1A         0.5648    6.0081    1.1646 O.co2     1 ACP        -0.8561
     11 O2A        -1.7187    5.0058    0.3313 O.co2     1 ACP        -0.8561
     12 O3A        -1.2048    5.2086    2.8242 O.3       1 ACP        -0.8166
     13 O5'         0.0182    3.5132    1.4596 O.3       1 ACP        -0.5737
     14 C5'        -0.8811    2.4285    1.6206 C.3       1 ACP         0.2197
     15 C4'        -0.1994    1.3333    2.4288 C.3       1 ACP         0.0944
     16 O4'        -1.1285    0.2356    2.5840 O.3       1 ACP        -0.4017
     17 C3'         1.0324    0.7610    1.7344 C.3       1 ACP         0.0859
     18 O3'         1.9175    0.2377    2.7247 O.3       1 ACP        -0.5941
     19 C2'         0.4468   -0.3802    0.9263 C.3       1 ACP         0.0924
     20 O2'         1.3993   -1.3703    0.5961 O.3       1 ACP        -0.5928
     21 C1'        -0.6159   -0.9100    1.8769 C.3       1 ACP         0.3967
     22 N9         -1.7127   -1.6108    1.2130 N.pl3     1 ACP        -0.6763
     23 C8         -2.0877   -2.9101    1.4304 C.ar      1 ACP         0.5586
     24 N7         -3.1152   -3.2613    0.6857 N.2       1 ACP        -0.5795
     25 C5         -3.4186   -2.1409   -0.0462 C.ar      1 ACP        -0.2116
     26 C6         -4.3953   -1.8809   -1.0023 C.ar      1 ACP         0.7185
     27 N6         -5.3118   -2.8767   -1.3812 N.pl3     1 ACP        -0.9442
     28 N1         -4.4538   -0.6507   -1.5667 N.ar      1 ACP        -0.8040
     29 C2         -3.5442    0.2679   -1.1609 C.ar      1 ACP         0.6560
     30 N3         -2.5561    0.1361   -0.2491 N.ar      1 ACP        -0.7058
     31 C4         -2.5568   -1.1019    0.2674 C.ar      1 ACP         0.5729
     32 HOG2       -4.4176    3.5814    3.1234 H         1 ACP         0.4440
     33 HOG3       -3.2052    1.7827    5.0074 H         1 ACP         0.4440
     34 H3B1       -2.4322    6.2049    5.2064 H         1 ACP         0.1084
     35 H3B2       -1.6971    5.0925    6.3572 H         1 ACP         0.1084
     36 H5'1       -1.7769    2.7852    2.1386 H         1 ACP         0.0281
     37 H5'2       -1.1652    2.0544    0.6320 H         1 ACP         0.0281
     38 H4'         0.0403    1.7078    3.4343 H         1 ACP         0.1082
     39 H3'         1.5906    1.4859    1.1353 H         1 ACP         0.0650
     40 HO3'        2.1521    0.9800    3.3017 H         1 ACP         0.4300
     41 H2'        -0.0017    0.0018    0.0005 H         1 ACP         0.0785
     42 HO2'        2.0953   -0.9375    0.0709 H         1 ACP         0.4275
     43 H1'        -0.1998   -1.6319    2.6178 H         1 ACP         0.1009
     44 H8         -1.5778   -3.5473    2.1399 H         1 ACP         0.1067
     45 HN61       -5.2294   -3.7965   -0.9914 H         1 ACP         0.4213
     46 HN62       -5.9774   -2.6837   -2.1055 H         1 ACP         0.4213
     47 H2         -3.6201    1.2414   -1.6336 H         1 ACP         0.0365
@<TRIPOS>BOND
     1    1    2 2
     2    1    3 1
     3    1    4 1
     4    1    8 1
     5    3   32 1
     6    4   33 1
     7    5    6 2
     8    5    7 1
     9    5    8 1
    10    5   12 1
    11    8   34 1
    12    8   35 1
    13    9   10 2
    14    9   11 1
    15    9   12 1
    16    9   13 1
    17   13   14 1
    18   14   15 1
    19   14   36 1
    20   14   37 1
    21   15   16 1
    22   15   17 1
    23   15   38 1
    24   16   21 1
    25   17   18 1
    26   17   19 1
    27   17   39 1
    28   18   40 1
    29   19   20 1
    30   19   21 1
    31   19   41 1
    32   20   42 1
    33   21   22 1
    34   21   43 1
    35   22   23 ar
    36   22   31 ar
    37   23   24 ar
    38   23   44 1
    39   24   25 ar
    40   25   26 ar
    41   25   31 ar
    42   26   27 1
    43   26   28 ar
    44   27   45 1
    45   27   46 1
    46   28   29 ar
    47   29   30 ar
    48   29   47 1
    49   30   31 ar
@<TRIPOS>SUBSTRUCTURE
     1 ACP         1 GROUP 0 A     ****
@<TRIPOS>MOLECULE
[[5-(6-aminopurin-9-yl)-3,4-dihydroxy-tetrahydrofuran-2-yl]methoxy-oxido-phosphoryl]oxy-(phosphonomethyl)phosphinate
   47    49     1     0     0
SMALL
USER_CHARGES

@<TRIPOS>ATOM
      1 PG          8.6200   -2.1355   -1.1413 P.3       1 ACP         1.6478
      2 O1G         9.1486   -0.7346   -1.2140 O.2       1 ACP        -0.9103
      3 O2G         9.1756   -3.0240    0.0883 O.3       1 ACP        -0.7989
      4 O3G         8.9135   -3.0548   -2.4368 O.3       1 ACP        -0.7989
      5 PB          5.9139   -1.5176    0.4789 P.3       1 ACP         1.4947
      6 O1B         6.4477   -2.1752    1.7304 O.co2     1 ACP        -0.8554
      7 O2B         4.4440   -1.5236    0.1281 O.co2     1 ACP        -0.8554
      8 C3B         6.8260   -2.2468   -0.9554 C.3       1 ACP        -0.6550
      9 PA          6.3565    1.2769    1.3737 P.3       1 ACP         1.5921
     10 O1A         6.9863    2.4835    0.7118 O.co2     1 ACP        -0.8561
     11 O2A         6.7864    0.8458    2.7591 O.co2     1 ACP        -0.8561
     12 O3A         6.5021   -0.0008    0.3670 O.3       1 ACP        -0.8166
     13 O5'         4.7294    1.4425    1.3700 O.3       1 ACP        -0.5737
     14 C5'         4.0922    1.9801    0.2227 C.3       1 ACP         0.2197
     15 C4'         2.5944    2.0310    0.4653 C.3       1 ACP         0.0944
     16 O4'         1.9327    2.5740   -0.6889 O.3       1 ACP        -0.4017
     17 C3'         1.9685    0.6634    0.6767 C.3       1 ACP         0.0859
     18 O3'         2.1425    0.1975    1.9977 O.3       1 ACP        -0.5941
     19 C2'         0.5176    0.9128    0.3099 C.3       1 ACP         0.0924
     20 O2'        -0.2103    1.4454    1.4152 O.3       1 ACP        -0.5928
     21 C1'         0.6219    1.9765   -0.7844 C.3       1 ACP         0.3967
     22 N9          0.4237    1.4496   -2.1357 N.pl3     1 ACP        -0.6763
     23 C8         -0.7736    1.3475   -2.7932 C.ar      1 ACP         0.5586
     24 N7         -0.6356    0.8373   -3.9991 N.2       1 ACP        -0.5795
     25 C5          0.7095    0.5981   -4.1281 C.ar      1 ACP        -0.2116
     26 C6          1.4733    0.0704   -5.1643 C.ar      1 ACP         0.7185
     27 N6          0.8693   -0.3355   -6.3666 N.pl3     1 ACP        -0.9442
     28 N1          2.8130   -0.0482   -5.0009 N.ar      1 ACP        -0.8040
     29 C2          3.3380    0.3602   -3.8204 C.ar      1 ACP         0.6560
     30 N3          2.7052    0.8841   -2.7480 N.ar      1 ACP        -0.7058
     31 C4          1.3867    0.9726   -2.9785 C.ar      1 ACP         0.5729
     32 HOG2       10.1401   -3.1881    0.1581 H         1 ACP         0.4440
     33 HOG3        9.8434   -3.2227   -2.6995 H         1 ACP         0.4440
     34 H3B1        6.3724   -1.8029   -1.8488 H         1 ACP         0.1084
     35 H3B2        6.5692   -3.3122   -0.9627 H         1 ACP         0.1084
     36 H5'1        4.4845    2.9853    0.0383 H         1 ACP         0.0281
     37 H5'2        4.3193    1.3444   -0.6389 H         1 ACP         0.0281
     38 H4'         2.3751    2.7029    1.3156 H         1 ACP         0.1082
     39 H3'         2.4336   -0.1217   -0.0015 H         1 ACP         0.0650
     40 HO3'        3.0987    0.1465    2.1461 H         1 ACP         0.4300
     41 H2'         0.0316    0.0155   -0.0339 H         1 ACP         0.0785
     42 HO2'       -0.1608    0.7921    2.1351 H         1 ACP         0.4275
     43 H1'        -0.1474    2.7798   -0.6651 H         1 ACP         0.1009
     44 H8         -1.7070    1.6599   -2.3451 H         1 ACP         0.1067
     45 HN61       -0.1277   -0.2866   -6.4583 H         1 ACP         0.4213
     46 HN62        1.4308   -0.7566   -7.0823 H         1 ACP         0.4213
     47 H2          4.4130    0.2505   -3.7241 H         1 ACP         0.0365
@<TRIPOS>BOND
     1    1    2 2
     2    1    3 1
     3    1    4 1
     4    1    8 1
     5    3   32 1
     6    4   33 1
     7    5    6 2
     8    5    7 1
     9    5    8 1
    10    5   12 1
    11    8   34 1
    12    8   35 1
    13    9   10 2
    14    9   11 1
    15    9   12 1
    16    9   13 1
    17   13   14 1
    18   14   15 1
    19   14   36 1
    20   14   37 1
    21   15   16 1
    22   15   17 1
    23   15   38 1
    24   16   21 1
    25   17   18 1
    26   17   19 1
    27   17   39 1
    28   18   40 1
    29   19   20 1
    30   19   21 1
    31   19   41 1
    32   20   42 1
    33   21   22 1
    34   21   43 1
    35   22   23 ar
    36   22   31 ar
    37   23   24 ar
    38   23   44 1
    39   24   25 ar
    40   25   26 ar
    41   25   31 ar
    42   26   27 1
    43   26   28 ar
    44   27   45 1
    45   27   46 1
    46   28   29 ar
    47   29   30 ar
    48   29   47 1
    49   30   31 ar
@<TRIPOS>SUBSTRUCTURE
     1 ACP         1 GROUP 0 A     ****
@<TRIPOS>MOLECULE
[[5-(6-aminopurin-9-yl)-3,4-dihydroxy-tetrahydrofuran-2-yl]methoxy-oxido-phosphoryl]oxy-(phosphonomethyl)phosphinate
   47    49     1     0     0
SMALL
USER_CHARGES

@<TRIPOS>ATOM
      1 PG         -0.0522    5.7925   -3.6040 P.3       1 ACP         1.6478
      2 O1G        -0.2916    5.6006   -5.0713 O.2       1 ACP        -0.9103
      3 O2G        -1.3815    5.9285   -2.6959 O.3       1 ACP        -0.7989
      4 O3G         0.8131    7.0979   -3.2080 O.3       1 ACP        -0.7989
      5 PB          1.2784    4.4327   -1.0135 P.3       1 ACP         1.4947
      6 O1B         2.1376    5.6473   -0.7490 O.co2     1 ACP        -0.8554
      7 O2B         1.7300    3.0332   -0.6654 O.co2     1 ACP        -0.8554
      8 C3B         0.8533    4.4431   -2.8135 C.3       1 ACP        -0.6550
      9 PA         -0.7382    5.0055    1.0868 P.3       1 ACP         1.5921
     10 O1A        -2.2516    5.0177    1.0865 O.co2     1 ACP        -0.8561
     11 O2A         0.0419    6.1870    1.6208 O.co2     1 ACP        -0.8561
     12 O3A        -0.2227    4.6896   -0.4304 O.3       1 ACP        -0.8166
     13 O5'        -0.2059    3.6558    1.8419 O.3       1 ACP        -0.5737
     14 C5'        -0.8811    2.4285    1.6206 C.3       1 ACP         0.2197
     15 C4'        -0.1994    1.3333    2.4288 C.3       1 ACP         0.0944
     16 O4'        -1.1285    0.2356    2.5840 O.3       1 ACP        -0.4017
     17 C3'         1.0324    0.7610    1.7344 C.3       1 ACP         0.0859
     18 O3'         1.9175    0.2377    2.7247 O.3       1 ACP        -0.5941
     19 C2'         0.4468   -0.3802    0.9263 C.3       1 ACP         0.0924
     20 O2'         1.3993   -1.3703    0.5961 O.3       1 ACP        -0.5928
     21 C1'        -0.6159   -0.9100    1.8769 C.3       1 ACP         0.3967
     22 N9         -1.7127   -1.6108    1.2130 N.pl3     1 ACP        -0.6763
     23 C8         -2.5476   -1.0844    0.2632 C.ar      1 ACP         0.5586
     24 N7         -3.4391   -1.9591   -0.1536 N.2       1 ACP        -0.5795
     25 C5         -3.1701   -3.1016    0.5574 C.ar      1 ACP        -0.2116
     26 C6         -3.7593   -4.3620    0.5656 C.ar      1 ACP         0.7185
     27 N6         -4.8512   -4.6493   -0.2712 N.pl3     1 ACP        -0.9442
     28 N1         -3.2659   -5.3144    1.3932 N.ar      1 ACP        -0.8040
     29 C2         -2.2122   -4.9785    2.1759 C.ar      1 ACP         0.6560
     30 N3         -1.5595   -3.7985    2.2572 N.ar      1 ACP        -0.7058
     31 C4         -2.0986   -2.9054    1.4140 C.ar      1 ACP         0.5729
     32 HOG2       -2.0076    6.6615   -2.8769 H         1 ACP         0.4440
     33 HOG3        0.4760    7.9848   -3.4567 H         1 ACP         0.4440
     34 H3B1        0.2899    3.5195   -2.9881 H         1 ACP         0.1084
     35 H3B2        1.8057    4.3418   -3.3463 H         1 ACP         0.1084
     36 H5'1       -1.9255    2.5383    1.9294 H         1 ACP         0.0281
     37 H5'2       -0.8472    2.1934    0.5521 H         1 ACP         0.0281
     38 H4'         0.0403    1.7078    3.4343 H         1 ACP         0.1082
     39 H3'         1.5906    1.4859    1.1353 H         1 ACP         0.0650
     40 HO3'        2.6839   -0.1150    2.2479 H         1 ACP         0.4300
     41 H2'        -0.0017    0.0018    0.0005 H         1 ACP         0.0785
     42 HO2'        2.0953   -0.9375    0.0709 H         1 ACP         0.4275
     43 H1'        -0.1998   -1.6319    2.6178 H         1 ACP         0.1009
     44 H8         -2.4576   -0.0639   -0.0831 H         1 ACP         0.1067
     45 HN61       -5.2371   -3.9234   -0.8448 H         1 ACP         0.4213
     46 HN62       -5.2909   -5.5485   -0.2160 H         1 ACP         0.4213
     47 H2         -1.8433   -5.7650    2.8259 H         1 ACP         0.0365
@<TRIPOS>BOND
     1    1    2 2
     2    1    3 1
     3    1    4 1
     4    1    8 1
     5    3   32 1
     6    4   33 1
     7    5    6 2
     8    5    7 1
     9    5    8 1
    10    5   12 1
    11    8   34 1
    12    8   35 1
    13    9   10 2
    14    9   11 1
    15    9   12 1
    16    9   13 1
    17   13   14 1
    18   14   15 1
    19   14   36 1
    20   14   37 1
    21   15   16 1
    22   15   17 1
    23   15   38 1
    24   16   21 1
    25   17   18 1
    26   17   19 1
    27   17   39 1
    28   18   40 1
    29   19   20 1
    30   19   21 1
    31   19   41 1
    32   20   42 1
    33   21   22 1
    34   21   43 1
    35   22   23 ar
    36   22   31 ar
    37   23   24 ar
    38   23   44 1
    39   24   25 ar
    40   25   26 ar
    41   25   31 ar
    42   26   27 1
    43   26   28 ar
    44   27   45 1
    45   27   46 1
    46   28   29 ar
    47   29   30 ar
    48   29   47 1
    49   30   31 ar
@<TRIPOS>SUBSTRUCTURE
     1 ACP         1 GROUP 0 A     ****
@<TRIPOS>MOLECULE
[[5-(6-aminopurin-9-yl)-3,4-dihydroxy-tetrahydrofuran-2-yl]methoxy-oxido-phosphoryl]oxy-(phosphonomethyl)phosphinate
   47    49     1     0     0
SMALL
USER_CHARGES

@<TRIPOS>ATOM
      1 PG         -2.9351    7.7679   -0.9428 P.3       1 ACP         1.6478
      2 O1G        -3.7905    6.6166   -1.3787 O.2       1 ACP        -0.9103
      3 O2G        -3.6436    8.8185    0.0595 O.3       1 ACP        -0.7989
      4 O3G        -2.3706    8.7016   -2.1341 O.3       1 ACP        -0.7989
      5 PB         -1.4708    6.3353    1.5337 P.3       1 ACP         1.4947
      6 O1B        -2.2407    7.1611    2.5381 O.co2     1 ACP        -0.8554
      7 O2B        -0.0638    5.8505    1.7965 O.co2     1 ACP        -0.8554
      8 C3B        -1.4384    7.2890   -0.0507 C.3       1 ACP        -0.6550
      9 PA         -3.0799    3.8626    1.8539 P.3       1 ACP         1.5921
     10 O1A        -3.7199    2.9140    0.8633 O.co2     1 ACP        -0.8561
     11 O2A        -3.8856    4.4438    2.9954 O.co2     1 ACP        -0.8561
     12 O3A        -2.3969    5.0932    1.0252 O.3       1 ACP        -0.8166
     13 O5'        -1.7337    3.1724    2.4754 O.3       1 ACP        -0.5737
     14 C5'        -0.8811    2.4285    1.6206 C.3       1 ACP         0.2197
     15 C4'        -0.1994    1.3333    2.4288 C.3       1 ACP         0.0944
     16 O4'        -1.1285    0.2356    2.5840 O.3       1 ACP        -0.4017
     17 C3'         1.0324    0.7610    1.7344 C.3       1 ACP         0.0859
     18 O3'         1.9175    0.2377    2.7247 O.3       1 ACP        -0.5941
     19 C2'         0.4468   -0.3802    0.9263 C.3       1 ACP         0.0924
     20 O2'         1.3993   -1.3703    0.5961 O.3       1 ACP        -0.5928
     21 C1'        -0.6159   -0.9100    1.8769 C.3       1 ACP         0.3967
     22 N9         -1.7127   -1.6108    1.2130 N.pl3     1 ACP        -0.6763
     23 C8         -2.0877   -2.9101    1.4304 C.ar      1 ACP         0.5586
     24 N7         -3.1152   -3.2613    0.6857 N.2       1 ACP        -0.5795
     25 C5         -3.4186   -2.1409   -0.0462 C.ar      1 ACP        -0.2116
     26 C6         -4.3953   -1.8809   -1.0023 C.ar      1 ACP         0.7185
     27 N6         -5.3118   -2.8767   -1.3812 N.pl3     1 ACP        -0.9442
     28 N1         -4.4538   -0.6507   -1.5667 N.ar      1 ACP        -0.8040
     29 C2         -3.5442    0.2679   -1.1609 C.ar      1 ACP         0.6560
     30 N3         -2.5561    0.1361   -0.2491 N.ar      1 ACP        -0.7058
     31 C4         -2.5568   -1.1019    0.2674 C.ar      1 ACP         0.5729
     32 HOG2       -4.4490    9.2914   -0.2399 H         1 ACP         0.4440
     33 HOG3       -3.0085    9.1589   -2.7223 H         1 ACP         0.4440
     34 H3B1       -0.8187    6.6998   -0.7361 H         1 ACP         0.1084
     35 H3B2       -0.8867    8.2108    0.1663 H         1 ACP         0.1084
     36 H5'1       -1.4802    1.9929    0.8148 H         1 ACP         0.0281
     37 H5'2       -0.1370    3.1043    1.1873 H         1 ACP         0.0281
     38 H4'         0.0403    1.7078    3.4343 H         1 ACP         0.1082
     39 H3'         1.5906    1.4859    1.1353 H         1 ACP         0.0650
     40 HO3'        2.6839   -0.1150    2.2479 H         1 ACP         0.4300
     41 H2'        -0.0017    0.0018    0.0005 H         1 ACP         0.0785
     42 HO2'        2.0953   -0.9375    0.0709 H         1 ACP         0.4275
     43 H1'        -0.1998   -1.6319    2.6178 H         1 ACP         0.1009
     44 H8         -1.5778   -3.5473    2.1399 H         1 ACP         0.1067
     45 HN61       -5.2294   -3.7965   -0.9914 H         1 ACP         0.4213
     46 HN62       -5.9774   -2.6837   -2.1055 H         1 ACP         0.4213
     47 H2         -3.6201    1.2414   -1.6336 H         1 ACP         0.0365
@<TRIPOS>BOND
     1    1    2 2
     2    1    3 1
     3    1    4 1
     4    1    8 1
     5    3   32 1
     6    4   33 1
     7    5    6 2
     8    5    7 1
     9    5    8 1
    10    5   12 1
    11    8   34 1
    12    8   35 1
    13    9   10 2
    14    9   11 1
    15    9   12 1
    16    9   13 1
    17   13   14 1
    18   14   15 1
    19   14   36 1
    20   14   37 1
    21   15   16 1
    22   15   17 1
    23   15   38 1
    24   16   21 1
    25   17   18 1
    26   17   19 1
    27   17   39 1
    28   18   40 1
    29   19   20 1
    30   19   21 1
    31   19   41 1
    32   20   42 1
    33   21   22 1
    34   21   43 1
    35   22   23 ar
    36   22   31 ar
    37   23   24 ar
    38   23   44 1
    39   24   25 ar
    40   25   26 ar
    41   25   31 ar
    42   26   27 1
    43   26   28 ar
    44   27   45 1
    45   27   46 1
    46   28   29 ar
    47   29   30 ar
    48   29   47 1
    49   30   31 ar
@<TRIPOS>SUBSTRUCTURE
     1 ACP         1 GROUP 0 A     ****
@<TRIPOS>MOLECULE
[[5-(6-aminopurin-9-yl)-3,4-dihydroxy-tetrahydrofuran-2-yl]methoxy-oxido-phosphoryl]oxy-(phosphonomethyl)phosphinate
   47    49     1     0     0
SMALL
USER_CHARGES

@<TRIPOS>ATOM
      1 PG         -0.2696    5.9581   -1.4331 P.3       1 ACP         1.6478
      2 O1G         0.3186    4.8653   -0.5922 O.2       1 ACP        -0.9103
      3 O2G        -1.0393    5.4695   -2.7669 O.3       1 ACP        -0.7989
      4 O3G         0.7838    7.0528   -1.9824 O.3       1 ACP        -0.7989
      5 PB         -3.0694    6.2670    0.1147 P.3       1 ACP         1.4947
      6 O1B        -3.8339    5.6429   -1.0296 O.co2     1 ACP        -0.8554
      7 O2B        -3.6749    7.3243    1.0085 O.co2     1 ACP        -0.8554
      8 C3B        -1.5073    6.9664   -0.5864 C.3       1 ACP        -0.6550
      9 PA         -3.0799    3.8626    1.8539 P.3       1 ACP         1.5921
     10 O1A        -3.7199    2.9140    0.8633 O.co2     1 ACP        -0.8561
     11 O2A        -3.8856    4.4438    2.9954 O.co2     1 ACP        -0.8561
     12 O3A        -2.3969    5.0932    1.0252 O.3       1 ACP        -0.8166
     13 O5'        -1.7337    3.1724    2.4754 O.3       1 ACP        -0.5737
     14 C5'        -0.8811    2.4285    1.6206 C.3       1 ACP         0.2197
     15 C4'        -0.1994    1.3333    2.4288 C.3       1 ACP         0.0944
     16 O4'        -1.1285    0.2356    2.5840 O.3       1 ACP        -0.4017
     17 C3'         1.0324    0.7610    1.7344 C.3       1 ACP         0.0859
     18 O3'         1.9175    0.2377    2.7247 O.3       1 ACP        -0.5941
     19 C2'         0.4468   -0.3802    0.9263 C.3       1 ACP         0.0924
     20 O2'         1.3993   -1.3703    0.5961 O.3       1 ACP        -0.5928
     21 C1'        -0.6159   -0.9100    1.8769 C.3       1 ACP         0.3967
     22 N9         -1.7127   -1.6108    1.2130 N.pl3     1 ACP        -0.6763
     23 C8         -2.0877   -2.9101    1.4304 C.ar      1 ACP         0.5586
     24 N7         -3.1152   -3.2613    0.6857 N.2       1 ACP        -0.5795
     25 C5         -3.4186   -2.1409   -0.0462 C.ar      1 ACP        -0.2116
     26 C6         -4.3953   -1.8809   -1.0023 C.ar      1 ACP         0.7185
     27 N6         -5.3118   -2.8767   -1.3812 N.pl3     1 ACP        -0.9442
     28 N1         -4.4538   -0.6507   -1.5667 N.ar      1 ACP        -0.8040
     29 C2         -3.5442    0.2679   -1.1609 C.ar      1 ACP         0.6560
     30 N3         -2.5561    0.1361   -0.2491 N.ar      1 ACP        -0.7058
     31 C4         -2.5568   -1.1019    0.2674 C.ar      1 ACP         0.5729
     32 HOG2       -0.5416    4.9644   -3.4446 H         1 ACP         0.4440
     33 HOG3        1.5216    6.7560   -2.5565 H         1 ACP         0.4440
     34 H3B1       -1.0087    7.4693    0.2500 H         1 ACP         0.1084
     35 H3B2       -1.8184    7.7478   -1.2892 H         1 ACP         0.1084
     36 H5'1       -1.4802    1.9929    0.8148 H         1 ACP         0.0281
     37 H5'2       -0.1370    3.1043    1.1873 H         1 ACP         0.0281
     38 H4'         0.0403    1.7078    3.4343 H         1 ACP         0.1082
     39 H3'         1.5906    1.4859    1.1353 H         1 ACP         0.0650
     40 HO3'        2.6839   -0.1150    2.2479 H         1 ACP         0.4300
     41 H2'        -0.0017    0.0018    0.0005 H         1 ACP         0.0785
     42 HO2'        0.9369   -2.0558    0.0825 H         1 ACP         0.4275
     43 H1'        -0.1998   -1.6319    2.6178 H         1 ACP         0.1009
     44 H8         -1.5778   -3.5473    2.1399 H         1 ACP         0.1067
     45 HN61       -5.2294   -3.7965   -0.9914 H         1 ACP         0.4213
     46 HN62       -5.9774   -2.6837   -2.1055 H         1 ACP         0.4213
     47 H2         -3.6201    1.2414   -1.6336 H         1 ACP         0.0365
@<TRIPOS>BOND
     1    1    2 2
     2    1    3 1
     3    1    4 1
     4    1    8 1
     5    3   32 1
     6    4   33 1
     7    5    6 2
     8    5    7 1
     9    5    8 1
    10    5   12 1
    11    8   34 1
    12    8   35 1
    13    9   10 2
    14    9   11 1
    15    9   12 1
    16    9   13 1
    17   13   14 1
    18   14   15 1
    19   14   36 1
    20   14   37 1
    21   15   16 1
    22   15   17 1
    23   15   38 1
    24   16   21 1
    25   17   18 1
    26   17   19 1
    27   17   39 1
    28   18   40 1
    29   19   20 1
    30   19   21 1
    31   19   41 1
    32   20   42 1
    33   21   22 1
    34   21   43 1
    35   22   23 ar
    36   22   31 ar
    37   23   24 ar
    38   23   44 1
    39   24   25 ar
    40   25   26 ar
    41   25   31 ar
    42   26   27 1
    43   26   28 ar
    44   27   45 1
    45   27   46 1
    46   28   29 ar
    47   29   30 ar
    48   29   47 1
    49   30   31 ar
@<TRIPOS>SUBSTRUCTURE
     1 ACP         1 GROUP 0 A     ****
@<TRIPOS>MOLECULE
[[5-(6-aminopurin-9-yl)-3,4-dihydroxy-tetrahydrofuran-2-yl]methoxy-oxido-phosphoryl]oxy-(phosphonomethyl)phosphinate
   47    49     1     0     0
SMALL
USER_CHARGES

@<TRIPOS>ATOM
      1 PG          9.4957    3.2569    3.1334 P.3       1 ACP         1.6478
      2 O1G        10.1286    4.6024    2.9426 O.2       1 ACP        -0.9103
      3 O2G        10.1677    2.3291    4.2726 O.3       1 ACP        -0.7989
      4 O3G         9.4833    2.3056    1.8278 O.3       1 ACP        -0.7989
      5 PB          6.4454    4.1059    2.5810 P.3       1 ACP         1.4947
      6 O1B         6.8219    5.5603    2.4180 O.co2     1 ACP        -0.8554
      7 O2B         5.1083    3.6758    3.1384 O.co2     1 ACP        -0.8554
      8 C3B         7.7558    3.3133    3.6182 C.3       1 ACP        -0.6550
      9 PA          6.1592    3.5244   -0.3148 P.3       1 ACP         1.5921
     10 O1A         6.6744    2.4082   -1.1976 O.co2     1 ACP        -0.8561
     11 O2A         6.3656    4.9722   -0.7036 O.co2     1 ACP        -0.8561
     12 O3A         6.7482    3.3058    1.1928 O.3       1 ACP        -0.8166
     13 O5'         4.5669    3.2941   -0.0211 O.3       1 ACP        -0.5737
     14 C5'         4.0922    1.9801    0.2227 C.3       1 ACP         0.2197
     15 C4'         2.5944    2.0310    0.4653 C.3       1 ACP         0.0944
     16 O4'         1.9327    2.5740   -0.6889 O.3       1 ACP        -0.4017
     17 C3'         1.9685    0.6634    0.6767 C.3       1 ACP         0.0859
     18 O3'         2.1425    0.1975    1.9977 O.3       1 ACP        -0.5941
     19 C2'         0.5176    0.9128    0.3099 C.3       1 ACP         0.0924
     20 O2'        -0.2103    1.4454    1.4152 O.3       1 ACP        -0.5928
     21 C1'         0.6219    1.9765   -0.7844 C.3       1 ACP         0.3967
     22 N9          0.4237    1.4496   -2.1357 N.pl3     1 ACP        -0.6763
     23 C8          1.1856    0.4888   -2.7458 C.ar      1 ACP         0.5586
     24 N7          0.7615    0.2176   -3.9625 N.2       1 ACP        -0.5795
     25 C5         -0.3220    1.0389   -4.1486 C.ar      1 ACP        -0.2116
     26 C6         -1.1900    1.2182   -5.2210 C.ar      1 ACP         0.7185
     27 N6         -1.0341    0.4739   -6.4028 N.pl3     1 ACP        -0.9442
     28 N1         -2.1929    2.1227   -5.1127 N.ar      1 ACP        -0.8040
     29 C2         -2.2930    2.8097   -3.9492 C.ar      1 ACP         0.6560
     30 N3         -1.5176    2.7252   -2.8462 N.ar      1 ACP        -0.7058
     31 C4         -0.5489    1.8142   -3.0226 C.ar      1 ACP         0.5729
     32 HOG2       11.1115    2.0770    4.1843 H         1 ACP         0.4440
     33 HOG3       10.3370    2.0506    1.4176 H         1 ACP         0.4440
     34 H3B1        7.4223    2.2813    3.7754 H         1 ACP         0.1084
     35 H3B2        7.7111    3.8151    4.5915 H         1 ACP         0.1084
     36 H5'1        4.3181    1.3551   -0.6470 H         1 ACP         0.0281
     37 H5'2        4.6085    1.5740    1.0982 H         1 ACP         0.0281
     38 H4'         2.3751    2.7029    1.3156 H         1 ACP         0.1082
     39 H3'         2.4336   -0.1217   -0.0015 H         1 ACP         0.0650
     40 HO3'        1.7160   -0.6716    2.0397 H         1 ACP         0.4300
     41 H2'         0.0316    0.0155   -0.0339 H         1 ACP         0.0785
     42 HO2'       -0.1608    0.7921    2.1351 H         1 ACP         0.4275
     43 H1'        -0.1474    2.7798   -0.6651 H         1 ACP         0.1009
     44 H8          2.0314    0.0256   -2.2564 H         1 ACP         0.1067
     45 HN61       -0.2609   -0.1582   -6.4888 H         1 ACP         0.4213
     46 HN62       -1.6409    0.6517   -7.1807 H         1 ACP         0.4213
     47 H2         -3.1067    3.5253   -3.8975 H         1 ACP         0.0365
@<TRIPOS>BOND
     1    1    2 2
     2    1    3 1
     3    1    4 1
     4    1    8 1
     5    3   32 1
     6    4   33 1
     7    5    6 2
     8    5    7 1
     9    5    8 1
    10    5   12 1
    11    8   34 1
    12    8   35 1
    13    9   10 2
    14    9   11 1
    15    9   12 1
    16    9   13 1
    17   13   14 1
    18   14   15 1
    19   14   36 1
    20   14   37 1
    21   15   16 1
    22   15   17 1
    23   15   38 1
    24   16   21 1
    25   17   18 1
    26   17   19 1
    27   17   39 1
    28   18   40 1
    29   19   20 1
    30   19   21 1
    31   19   41 1
    32   20   42 1
    33   21   22 1
    34   21   43 1
    35   22   23 ar
    36   22   31 ar
    37   23   24 ar
    38   23   44 1
    39   24   25 ar
    40   25   26 ar
    41   25   31 ar
    42   26   27 1
    43   26   28 ar
    44   27   45 1
    45   27   46 1
    46   28   29 ar
    47   29   30 ar
    48   29   47 1
    49   30   31 ar
@<TRIPOS>SUBSTRUCTURE
     1 ACP         1 GROUP 0 A     ****
@<TRIPOS>MOLECULE
[[5-(6-aminopurin-9-yl)-3,4-dihydroxy-tetrahydrofuran-2-yl]methoxy-oxido-phosphoryl]oxy-(phosphonomethyl)phosphinate
   47    49     1     0     0
SMALL
USER_CHARGES

@<TRIPOS>ATOM
      1 PG          6.5193   -1.7594   -2.6683 P.3       1 ACP         1.6478
      2 O1G         6.7596   -0.3068   -2.9506 O.2       1 ACP        -0.9103
      3 O2G         7.4296   -2.7908   -3.5155 O.3       1 ACP        -0.7989
      4 O3G         5.0122   -2.2768   -2.9340 O.3       1 ACP        -0.7989
      5 PB          5.9139   -1.5176    0.4789 P.3       1 ACP         1.4947
      6 O1B         6.4477   -2.1752    1.7304 O.co2     1 ACP        -0.8554
      7 O2B         4.4440   -1.5236    0.1281 O.co2     1 ACP        -0.8554
      8 C3B         6.8260   -2.2468   -0.9554 C.3       1 ACP        -0.6550
      9 PA          6.3565    1.2769    1.3737 P.3       1 ACP         1.5921
     10 O1A         6.9863    2.4835    0.7118 O.co2     1 ACP        -0.8561
     11 O2A         6.7864    0.8458    2.7591 O.co2     1 ACP        -0.8561
     12 O3A         6.5021   -0.0008    0.3670 O.3       1 ACP        -0.8166
     13 O5'         4.7294    1.4425    1.3700 O.3       1 ACP        -0.5737
     14 C5'         4.0922    1.9801    0.2227 C.3       1 ACP         0.2197
     15 C4'         2.5944    2.0310    0.4653 C.3       1 ACP         0.0944
     16 O4'         1.9327    2.5740   -0.6889 O.3       1 ACP        -0.4017
     17 C3'         1.9685    0.6634    0.6767 C.3       1 ACP         0.0859
     18 O3'         2.1425    0.1975    1.9977 O.3       1 ACP        -0.5941
     19 C2'         0.5176    0.9128    0.3099 C.3       1 ACP         0.0924
     20 O2'        -0.2103    1.4454    1.4152 O.3       1 ACP        -0.5928
     21 C1'         0.6219    1.9765   -0.7844 C.3       1 ACP         0.3967
     22 N9          0.4237    1.4496   -2.1357 N.pl3     1 ACP        -0.6763
     23 C8         -0.7736    1.3475   -2.7932 C.ar      1 ACP         0.5586
     24 N7         -0.6356    0.8373   -3.9991 N.2       1 ACP        -0.5795
     25 C5          0.7095    0.5981   -4.1281 C.ar      1 ACP        -0.2116
     26 C6          1.4733    0.0704   -5.1643 C.ar      1 ACP         0.7185
     27 N6          0.8693   -0.3355   -6.3666 N.pl3     1 ACP        -0.9442
     28 N1          2.8130   -0.0482   -5.0009 N.ar      1 ACP        -0.8040
     29 C2          3.3380    0.3602   -3.8204 C.ar      1 ACP         0.6560
     30 N3          2.7052    0.8841   -2.7480 N.ar      1 ACP        -0.7058
     31 C4          1.3867    0.9726   -2.9785 C.ar      1 ACP         0.5729
     32 HOG2        7.3713   -2.7822   -4.4946 H         1 ACP         0.4440
     33 HOG3        4.6357   -2.2003   -3.8364 H         1 ACP         0.4440
     34 H3B1        6.6672   -3.3288   -0.8857 H         1 ACP         0.1084
     35 H3B2        7.8886   -2.0665   -0.7570 H         1 ACP         0.1084
     36 H5'1        4.4845    2.9853    0.0383 H         1 ACP         0.0281
     37 H5'2        4.3193    1.3444   -0.6389 H         1 ACP         0.0281
     38 H4'         2.3751    2.7029    1.3156 H         1 ACP         0.1082
     39 H3'         2.4336   -0.1217   -0.0015 H         1 ACP         0.0650
     40 HO3'        3.0987    0.1465    2.1461 H         1 ACP         0.4300
     41 H2'         0.0316    0.0155   -0.0339 H         1 ACP         0.0785
     42 HO2'       -0.1608    0.7921    2.1351 H         1 ACP         0.4275
     43 H1'        -0.1474    2.7798   -0.6651 H         1 ACP         0.1009
     44 H8         -1.7070    1.6599   -2.3451 H         1 ACP         0.1067
     45 HN61       -0.1277   -0.2866   -6.4583 H         1 ACP         0.4213
     46 HN62        1.4308   -0.7566   -7.0823 H         1 ACP         0.4213
     47 H2          4.4130    0.2505   -3.7241 H         1 ACP         0.0365
@<TRIPOS>BOND
     1    1    2 2
     2    1    3 1
     3    1    4 1
     4    1    8 1
     5    3   32 1
     6    4   33 1
     7    5    6 2
     8    5    7 1
     9    5    8 1
    10    5   12 1
    11    8   34 1
    12    8   35 1
    13    9   10 2
    14    9   11 1
    15    9   12 1
    16    9   13 1
    17   13   14 1
    18   14   15 1
    19   14   36 1
    20   14   37 1
    21   15   16 1
    22   15   17 1
    23   15   38 1
    24   16   21 1
    25   17   18 1
    26   17   19 1
    27   17   39 1
    28   18   40 1
    29   19   20 1
    30   19   21 1
    31   19   41 1
    32   20   42 1
    33   21   22 1
    34   21   43 1
    35   22   23 ar
    36   22   31 ar
    37   23   24 ar
    38   23   44 1
    39   24   25 ar
    40   25   26 ar
    41   25   31 ar
    42   26   27 1
    43   26   28 ar
    44   27   45 1
    45   27   46 1
    46   28   29 ar
    47   29   30 ar
    48   29   47 1
    49   30   31 ar
@<TRIPOS>SUBSTRUCTURE
     1 ACP         1 GROUP 0 A     ****
@<TRIPOS>MOLECULE
[[5-(6-aminopurin-9-yl)-3,4-dihydroxy-tetrahydrofuran-2-yl]methoxy-oxido-phosphoryl]oxy-(phosphonomethyl)phosphinate
   47    49     1     0     0
SMALL
USER_CHARGES

@<TRIPOS>ATOM
      1 PG         -0.1071   -1.7856   -6.9754 P.3       1 ACP         1.6478
      2 O1G         1.0012   -2.7767   -7.1673 O.2       1 ACP        -0.9103
      3 O2G        -1.4246   -2.0346   -7.8769 O.3       1 ACP        -0.7989
      4 O3G         0.2781   -0.2473   -7.2833 O.3       1 ACP        -0.7989
      5 PB         -2.1326   -0.5800   -4.7905 P.3       1 ACP         1.4947
      6 O1B        -2.3945   -0.8161   -3.3211 O.co2     1 ACP        -0.8554
      7 O2B        -3.2202   -0.6965   -5.8332 O.co2     1 ACP        -0.8554
      8 C3B        -0.7631   -1.7171   -5.2930 C.3       1 ACP        -0.6550
      9 PA         -1.7483    2.3548   -4.5782 P.3       1 ACP         1.5921
     10 O1A        -3.0949    2.6646   -5.1958 O.co2     1 ACP        -0.8561
     11 O2A        -0.5594    3.2567   -4.8294 O.co2     1 ACP        -0.8561
     12 O3A        -1.3325    0.8279   -4.9821 O.3       1 ACP        -0.8166
     13 O5'        -1.9208    2.1717   -2.9622 O.3       1 ACP        -0.5737
     14 C5'        -0.7794    1.8744   -2.1748 C.3       1 ACP         0.2197
     15 C4'        -0.9699    2.4597   -0.7819 C.3       1 ACP         0.0944
     16 O4'        -2.1475    1.8640   -0.2014 O.3       1 ACP        -0.4017
     17 C3'         0.1697    2.1347    0.1695 C.3       1 ACP         0.0859
     18 O3'         0.1809    3.0982    1.2223 O.3       1 ACP        -0.5941
     19 C2'        -0.2543    0.7880    0.7187 C.3       1 ACP         0.0924
     20 O2'         0.3606    0.4944    1.9582 O.3       1 ACP        -0.5928
     21 C1'        -1.7682    0.9516    0.8548 C.3       1 ACP         0.3967
     22 N9         -2.5926   -0.2553    0.7436 N.pl3     1 ACP        -0.6763
     23 C8         -3.5599   -0.4866   -0.1983 C.ar      1 ACP         0.5586
     24 N7         -4.1294   -1.6639   -0.0461 N.2       1 ACP        -0.5795
     25 C5         -3.5041   -2.2191    1.0420 C.ar      1 ACP        -0.2116
     26 C6         -3.6604   -3.4390    1.6925 C.ar      1 ACP         0.7185
     27 N6         -4.6108   -4.3735    1.2468 N.pl3     1 ACP        -0.9442
     28 N1         -2.8820   -3.7179    2.7657 N.ar      1 ACP        -0.8040
     29 C2         -1.9837   -2.7784    3.1481 C.ar      1 ACP         0.6560
     30 N3         -1.7408   -1.5668    2.6022 N.ar      1 ACP        -0.7058
     31 C4         -2.5438   -1.3578    1.5483 C.ar      1 ACP         0.5729
     32 HOG2       -1.3398   -2.0281   -8.8540 H         1 ACP         0.4440
     33 HOG3        0.5872   -0.0056   -8.1822 H         1 ACP         0.4440
     34 H3B1       -1.1055   -2.7242   -5.0299 H         1 ACP         0.1084
     35 H3B2        0.0783   -1.4827   -4.6311 H         1 ACP         0.1084
     36 H5'1       -0.6602    0.7877   -2.1203 H         1 ACP         0.0281
     37 H5'2        0.1041    2.3072   -2.6545 H         1 ACP         0.0281
     38 H4'        -1.1469    3.5409   -0.8522 H         1 ACP         0.1082
     39 H3'         1.1601    2.1310   -0.2934 H         1 ACP         0.0650
     40 HO3'        0.9173    2.8584    1.8048 H         1 ACP         0.4300
     41 H2'        -0.0024   -0.0091    0.0062 H         1 ACP         0.0785
     42 HO2'        0.0384   -0.3797    2.2403 H         1 ACP         0.4275
     43 H1'        -2.0584    1.4255    1.8301 H         1 ACP         0.1009
     44 H8         -3.8030    0.2355   -0.9657 H         1 ACP         0.1067
     45 HN61       -4.6753   -5.2653    1.6999 H         1 ACP         0.4213
     46 HN62       -5.1476   -4.1759    0.4235 H         1 ACP         0.4213
     47 H2         -1.3778   -3.0348    4.0107 H         1 ACP         0.0365
@<TRIPOS>BOND
     1    1    2 2
     2    1    3 1
     3    1    4 1
     4    1    8 1
     5    3   32 1
     6    4   33 1
     7    5    6 2
     8    5    7 1
     9    5    8 1
    10    5   12 1
    11    8   34 1
    12    8   35 1
    13    9   10 2
    14    9   11 1
    15    9   12 1
    16    9   13 1
    17   13   14 1
    18   14   15 1
    19   14   36 1
    20   14   37 1
    21   15   16 1
    22   15   17 1
    23   15   38 1
    24   16   21 1
    25   17   18 1
    26   17   19 1
    27   17   39 1
    28   18   40 1
    29   19   20 1
    30   19   21 1
    31   19   41 1
    32   20   42 1
    33   21   22 1
    34   21   43 1
    35   22   23 ar
    36   22   31 ar
    37   23   24 ar
    38   23   44 1
    39   24   25 ar
    40   25   26 ar
    41   25   31 ar
    42   26   27 1
    43   26   28 ar
    44   27   45 1
    45   27   46 1
    46   28   29 ar
    47   29   30 ar
    48   29   47 1
    49   30   31 ar
@<TRIPOS>SUBSTRUCTURE
     1 ACP         1 GROUP 0 A     ****
@<TRIPOS>MOLECULE
[[5-(6-aminopurin-9-yl)-3,4-dihydroxy-tetrahydrofuran-2-yl]methoxy-oxido-phosphoryl]oxy-(phosphonomethyl)phosphinate
   47    49     1     0     0
SMALL
USER_CHARGES

@<TRIPOS>ATOM
      1 PG          8.6200   -2.1355   -1.1413 P.3       1 ACP         1.6478
      2 O1G         9.1486   -0.7346   -1.2140 O.2       1 ACP        -0.9103
      3 O2G         9.1756   -3.0240    0.0883 O.3       1 ACP        -0.7989
      4 O3G         8.9135   -3.0548   -2.4368 O.3       1 ACP        -0.7989
      5 PB          5.9139   -1.5176    0.4789 P.3       1 ACP         1.4947
      6 O1B         6.4477   -2.1752    1.7304 O.co2     1 ACP        -0.8554
      7 O2B         4.4440   -1.5236    0.1281 O.co2     1 ACP        -0.8554
      8 C3B         6.8260   -2.2468   -0.9554 C.3       1 ACP        -0.6550
      9 PA          6.3565    1.2769    1.3737 P.3       1 ACP         1.5921
     10 O1A         6.9863    2.4835    0.7118 O.co2     1 ACP        -0.8561
     11 O2A         6.7864    0.8458    2.7591 O.co2     1 ACP        -0.8561
     12 O3A         6.5021   -0.0008    0.3670 O.3       1 ACP        -0.8166
     13 O5'         4.7294    1.4425    1.3700 O.3       1 ACP        -0.5737
     14 C5'         4.0922    1.9801    0.2227 C.3       1 ACP         0.2197
     15 C4'         2.5944    2.0310    0.4653 C.3       1 ACP         0.0944
     16 O4'         1.9327    2.5740   -0.6889 O.3       1 ACP        -0.4017
     17 C3'         1.9685    0.6634    0.6767 C.3       1 ACP         0.0859
     18 O3'         2.1425    0.1975    1.9977 O.3       1 ACP        -0.5941
     19 C2'         0.5176    0.9128    0.3099 C.3       1 ACP         0.0924
     20 O2'        -0.2103    1.4454    1.4152 O.3       1 ACP        -0.5928
     21 C1'         0.6219    1.9765   -0.7844 C.3       1 ACP         0.3967
     22 N9          0.4237    1.4496   -2.1357 N.pl3     1 ACP        -0.6763
     23 C8          1.4026    0.9717   -2.9660 C.ar      1 ACP         0.5586
     24 N7          0.9183    0.5619   -4.1197 N.2       1 ACP        -0.5795
     25 C5         -0.4330    0.7845   -4.0331 C.ar      1 ACP        -0.2116
     26 C6         -1.4794    0.5615   -4.9225 C.ar      1 ACP         0.7185
     27 N6         -1.2378    0.0044   -6.1899 N.pl3     1 ACP        -0.9442
     28 N1         -2.7406    0.8885   -4.5512 N.ar      1 ACP        -0.8040
     29 C2         -2.9113    1.4216   -3.3172 C.ar      1 ACP         0.6560
     30 N3         -1.9824    1.6843   -2.3721 N.ar      1 ACP        -0.7058
     31 C4         -0.7613    1.3370   -2.8054 C.ar      1 ACP         0.5729
     32 HOG2       10.1401   -3.1881    0.1581 H         1 ACP         0.4440
     33 HOG3        9.8434   -3.2227   -2.6995 H         1 ACP         0.4440
     34 H3B1        6.3724   -1.8029   -1.8488 H         1 ACP         0.1084
     35 H3B2        6.5692   -3.3122   -0.9627 H         1 ACP         0.1084
     36 H5'1        4.4845    2.9853    0.0383 H         1 ACP         0.0281
     37 H5'2        4.3193    1.3444   -0.6389 H         1 ACP         0.0281
     38 H4'         2.3751    2.7029    1.3156 H         1 ACP         0.1082
     39 H3'         2.4336   -0.1217   -0.0015 H         1 ACP         0.0650
     40 HO3'        3.0987    0.1465    2.1461 H         1 ACP         0.4300
     41 H2'         0.0316    0.0155   -0.0339 H         1 ACP         0.0785
     42 HO2'       -1.1270    1.5823    1.1180 H         1 ACP         0.4275
     43 H1'        -0.1474    2.7798   -0.6651 H         1 ACP         0.1009
     44 H8          2.4442    0.9470   -2.6763 H         1 ACP         0.1067
     45 HN61       -0.2955   -0.1901   -6.4713 H         1 ACP         0.4213
     46 HN62       -1.9987   -0.1045   -6.8334 H         1 ACP         0.4213
     47 H2         -3.9335    1.6716   -3.0534 H         1 ACP         0.0365
@<TRIPOS>BOND
     1    1    2 2
     2    1    3 1
     3    1    4 1
     4    1    8 1
     5    3   32 1
     6    4   33 1
     7    5    6 2
     8    5    7 1
     9    5    8 1
    10    5   12 1
    11    8   34 1
    12    8   35 1
    13    9   10 2
    14    9   11 1
    15    9   12 1
    16    9   13 1
    17   13   14 1
    18   14   15 1
    19   14   36 1
    20   14   37 1
    21   15   16 1
    22   15   17 1
    23   15   38 1
    24   16   21 1
    25   17   18 1
    26   17   19 1
    27   17   39 1
    28   18   40 1
    29   19   20 1
    30   19   21 1
    31   19   41 1
    32   20   42 1
    33   21   22 1
    34   21   43 1
    35   22   23 ar
    36   22   31 ar
    37   23   24 ar
    38   23   44 1
    39   24   25 ar
    40   25   26 ar
    41   25   31 ar
    42   26   27 1
    43   26   28 ar
    44   27   45 1
    45   27   46 1
    46   28   29 ar
    47   29   30 ar
    48   29   47 1
    49   30   31 ar
@<TRIPOS>SUBSTRUCTURE
     1 ACP         1 GROUP 0 A     ****
@<TRIPOS>MOLECULE
[[5-(6-aminopurin-9-yl)-3,4-dihydroxy-tetrahydrofuran-2-yl]methoxy-oxido-phosphoryl]oxy-(phosphonomethyl)phosphinate
   47    49     1     0     0
SMALL
USER_CHARGES

@<TRIPOS>ATOM
      1 PG          1.2948    8.1585    2.9366 P.3       1 ACP         1.6478
      2 O1G         2.5482    8.9352    2.6665 O.2       1 ACP        -0.9103
      3 O2G         0.3676    7.8665    1.6462 O.3       1 ACP        -0.7989
      4 O3G         0.2750    8.8340    3.9917 O.3       1 ACP        -0.7989
      5 PB          0.1959    5.3518    4.0522 P.3       1 ACP         1.4947
      6 O1B        -0.6657    6.0375    5.0871 O.co2     1 ACP        -0.8554
      7 O2B         0.8101    3.9911    4.2865 O.co2     1 ACP        -0.8554
      8 C3B         1.5723    6.5123    3.6284 C.3       1 ACP        -0.6550
      9 PA         -2.0037    4.7529    2.1525 P.3       1 ACP         1.5921
     10 O1A        -2.1554    4.9422    0.6587 O.co2     1 ACP        -0.8561
     11 O2A        -3.0660    5.2571    3.1051 O.co2     1 ACP        -0.8561
     12 O3A        -0.5638    5.3737    2.6095 O.3       1 ACP        -0.8166
     13 O5'        -1.7337    3.1724    2.4754 O.3       1 ACP        -0.5737
     14 C5'        -0.8811    2.4285    1.6206 C.3       1 ACP         0.2197
     15 C4'        -0.1994    1.3333    2.4288 C.3       1 ACP         0.0944
     16 O4'        -1.1285    0.2356    2.5840 O.3       1 ACP        -0.4017
     17 C3'         1.0324    0.7610    1.7344 C.3       1 ACP         0.0859
     18 O3'         1.9175    0.2377    2.7247 O.3       1 ACP        -0.5941
     19 C2'         0.4468   -0.3802    0.9263 C.3       1 ACP         0.0924
     20 O2'         1.3993   -1.3703    0.5961 O.3       1 ACP        -0.5928
     21 C1'        -0.6159   -0.9100    1.8769 C.3       1 ACP         0.3967
     22 N9         -1.7127   -1.6108    1.2130 N.pl3     1 ACP        -0.6763
     23 C8         -2.0877   -2.9101    1.4304 C.ar      1 ACP         0.5586
     24 N7         -3.1152   -3.2613    0.6857 N.2       1 ACP        -0.5795
     25 C5         -3.4186   -2.1409   -0.0462 C.ar      1 ACP        -0.2116
     26 C6         -4.3953   -1.8809   -1.0023 C.ar      1 ACP         0.7185
     27 N6         -5.3118   -2.8767   -1.3812 N.pl3     1 ACP        -0.9442
     28 N1         -4.4538   -0.6507   -1.5667 N.ar      1 ACP        -0.8040
     29 C2         -3.5442    0.2679   -1.1609 C.ar      1 ACP         0.6560
     30 N3         -2.5561    0.1361   -0.2491 N.ar      1 ACP        -0.7058
     31 C4         -2.5568   -1.1019    0.2674 C.ar      1 ACP         0.5729
     32 HOG2        0.0077    8.6247    1.1385 H         1 ACP         0.4440
     33 HOG3       -0.0969    9.7195    3.7929 H         1 ACP         0.4440
     34 H3B1        2.2151    5.9640    2.9305 H         1 ACP         0.1084
     35 H3B2        2.1458    6.6464    4.5527 H         1 ACP         0.1084
     36 H5'1       -1.4802    1.9929    0.8148 H         1 ACP         0.0281
     37 H5'2       -0.1370    3.1043    1.1873 H         1 ACP         0.0281
     38 H4'         0.0403    1.7078    3.4343 H         1 ACP         0.1082
     39 H3'         1.5906    1.4859    1.1353 H         1 ACP         0.0650
     40 HO3'        2.1521    0.9800    3.3017 H         1 ACP         0.4300
     41 H2'        -0.0017    0.0018    0.0005 H         1 ACP         0.0785
     42 HO2'        0.9369   -2.0558    0.0825 H         1 ACP         0.4275
     43 H1'        -0.1998   -1.6319    2.6178 H         1 ACP         0.1009
     44 H8         -1.5778   -3.5473    2.1399 H         1 ACP         0.1067
     45 HN61       -5.2294   -3.7965   -0.9914 H         1 ACP         0.4213
     46 HN62       -5.9774   -2.6837   -2.1055 H         1 ACP         0.4213
     47 H2         -3.6201    1.2414   -1.6336 H         1 ACP         0.0365
@<TRIPOS>BOND
     1    1    2 2
     2    1    3 1
     3    1    4 1
     4    1    8 1
     5    3   32 1
     6    4   33 1
     7    5    6 2
     8    5    7 1
     9    5    8 1
    10    5   12 1
    11    8   34 1
    12    8   35 1
    13    9   10 2
    14    9   11 1
    15    9   12 1
    16    9   13 1
    17   13   14 1
    18   14   15 1
    19   14   36 1
    20   14   37 1
    21   15   16 1
    22   15   17 1
    23   15   38 1
    24   16   21 1
    25   17   18 1
    26   17   19 1
    27   17   39 1
    28   18   40 1
    29   19   20 1
    30   19   21 1
    31   19   41 1
    32   20   42 1
    33   21   22 1
    34   21   43 1
    35   22   23 ar
    36   22   31 ar
    37   23   24 ar
    38   23   44 1
    39   24   25 ar
    40   25   26 ar
    41   25   31 ar
    42   26   27 1
    43   26   28 ar
    44   27   45 1
    45   27   46 1
    46   28   29 ar
    47   29   30 ar
    48   29   47 1
    49   30   31 ar
@<TRIPOS>SUBSTRUCTURE
     1 ACP         1 GROUP 0 A     ****
@<TRIPOS>MOLECULE
[[5-(6-aminopurin-9-yl)-3,4-dihydroxy-tetrahydrofuran-2-yl]methoxy-oxido-phosphoryl]oxy-(phosphonomethyl)phosphinate
   47    49     1     0     0
SMALL
USER_CHARGES

@<TRIPOS>ATOM
      1 PG          7.0689    1.1801    3.7804 P.3       1 ACP         1.6478
      2 O1G         5.6757    1.1278    3.2293 O.2       1 ACP        -0.9103
      3 O2G         8.0844    0.0620    3.2071 O.3       1 ACP        -0.7989
      4 O3G         7.1868    1.0138    5.3829 O.3       1 ACP        -0.7989
      5 PB          8.2764    3.3675    1.7586 P.3       1 ACP         1.4947
      6 O1B         9.1186    2.3305    1.0523 O.co2     1 ACP        -0.8554
      7 O2B         8.7143    4.8074    1.8937 O.co2     1 ACP        -0.8554
      8 C3B         7.9387    2.7319    3.4624 C.3       1 ACP        -0.6550
      9 PA          6.1592    3.5244   -0.3148 P.3       1 ACP         1.5921
     10 O1A         6.6744    2.4082   -1.1976 O.co2     1 ACP        -0.8561
     11 O2A         6.3656    4.9722   -0.7036 O.co2     1 ACP        -0.8561
     12 O3A         6.7482    3.3058    1.1928 O.3       1 ACP        -0.8166
     13 O5'         4.5669    3.2941   -0.0211 O.3       1 ACP        -0.5737
     14 C5'         4.0922    1.9801    0.2227 C.3       1 ACP         0.2197
     15 C4'         2.5944    2.0310    0.4653 C.3       1 ACP         0.0944
     16 O4'         1.9327    2.5740   -0.6889 O.3       1 ACP        -0.4017
     17 C3'         1.9685    0.6634    0.6767 C.3       1 ACP         0.0859
     18 O3'         2.1425    0.1975    1.9977 O.3       1 ACP        -0.5941
     19 C2'         0.5176    0.9128    0.3099 C.3       1 ACP         0.0924
     20 O2'        -0.2103    1.4454    1.4152 O.3       1 ACP        -0.5928
     21 C1'         0.6219    1.9765   -0.7844 C.3       1 ACP         0.3967
     22 N9          0.4237    1.4496   -2.1357 N.pl3     1 ACP        -0.6763
     23 C8          1.4026    0.9717   -2.9660 C.ar      1 ACP         0.5586
     24 N7          0.9183    0.5619   -4.1197 N.2       1 ACP        -0.5795
     25 C5         -0.4330    0.7845   -4.0331 C.ar      1 ACP        -0.2116
     26 C6         -1.4794    0.5615   -4.9225 C.ar      1 ACP         0.7185
     27 N6         -1.2378    0.0044   -6.1899 N.pl3     1 ACP        -0.9442
     28 N1         -2.7406    0.8885   -4.5512 N.ar      1 ACP        -0.8040
     29 C2         -2.9113    1.4216   -3.3172 C.ar      1 ACP         0.6560
     30 N3         -1.9824    1.6843   -2.3721 N.ar      1 ACP        -0.7058
     31 C4         -0.7613    1.3370   -2.8054 C.ar      1 ACP         0.5729
     32 HOG2        7.8706   -0.8861    3.3388 H         1 ACP         0.4440
     33 HOG3        6.8546    0.1911    5.8010 H         1 ACP         0.4440
     34 H3B1        7.3868    3.5308    3.9704 H         1 ACP         0.1084
     35 H3B2        8.9159    2.6570    3.9528 H         1 ACP         0.1084
     36 H5'1        4.3181    1.3551   -0.6470 H         1 ACP         0.0281
     37 H5'2        4.6085    1.5740    1.0982 H         1 ACP         0.0281
     38 H4'         2.3751    2.7029    1.3156 H         1 ACP         0.1082
     39 H3'         2.4336   -0.1217   -0.0015 H         1 ACP         0.0650
     40 HO3'        1.7160   -0.6716    2.0397 H         1 ACP         0.4300
     41 H2'         0.0316    0.0155   -0.0339 H         1 ACP         0.0785
     42 HO2'       -1.1270    1.5823    1.1180 H         1 ACP         0.4275
     43 H1'        -0.1474    2.7798   -0.6651 H         1 ACP         0.1009
     44 H8          2.4442    0.9470   -2.6763 H         1 ACP         0.1067
     45 HN61       -0.2955   -0.1901   -6.4713 H         1 ACP         0.4213
     46 HN62       -1.9987   -0.1045   -6.8334 H         1 ACP         0.4213
     47 H2         -3.9335    1.6716   -3.0534 H         1 ACP         0.0365
@<TRIPOS>BOND
     1    1    2 2
     2    1    3 1
     3    1    4 1
     4    1    8 1
     5    3   32 1
     6    4   33 1
     7    5    6 2
     8    5    7 1
     9    5    8 1
    10    5   12 1
    11    8   34 1
    12    8   35 1
    13    9   10 2
    14    9   11 1
    15    9   12 1
    16    9   13 1
    17   13   14 1
    18   14   15 1
    19   14   36 1
    20   14   37 1
    21   15   16 1
    22   15   17 1
    23   15   38 1
    24   16   21 1
    25   17   18 1
    26   17   19 1
    27   17   39 1
    28   18   40 1
    29   19   20 1
    30   19   21 1
    31   19   41 1
    32   20   42 1
    33   21   22 1
    34   21   43 1
    35   22   23 ar
    36   22   31 ar
    37   23   24 ar
    38   23   44 1
    39   24   25 ar
    40   25   26 ar
    41   25   31 ar
    42   26   27 1
    43   26   28 ar
    44   27   45 1
    45   27   46 1
    46   28   29 ar
    47   29   30 ar
    48   29   47 1
    49   30   31 ar
@<TRIPOS>SUBSTRUCTURE
     1 ACP         1 GROUP 0 A     ****
@<TRIPOS>MOLECULE
[[5-(6-aminopurin-9-yl)-3,4-dihydroxy-tetrahydrofuran-2-yl]methoxy-oxido-phosphoryl]oxy-(phosphonomethyl)phosphinate
   47    49     1     0     0
SMALL
USER_CHARGES

@<TRIPOS>ATOM
      1 PG         -0.2696    5.9581   -1.4331 P.3       1 ACP         1.6478
      2 O1G         0.9217    6.7243   -1.9244 O.2       1 ACP        -0.9103
      3 O2G         0.0496    4.7889   -0.3648 O.3       1 ACP        -0.7989
      4 O3G        -1.1278    5.2044   -2.5755 O.3       1 ACP        -0.7989
      5 PB         -3.0694    6.2670    0.1147 P.3       1 ACP         1.4947
      6 O1B        -3.8339    5.6429   -1.0296 O.co2     1 ACP        -0.8554
      7 O2B        -3.6749    7.3243    1.0085 O.co2     1 ACP        -0.8554
      8 C3B        -1.5073    6.9664   -0.5864 C.3       1 ACP        -0.6550
      9 PA         -3.0799    3.8626    1.8539 P.3       1 ACP         1.5921
     10 O1A        -3.7199    2.9140    0.8633 O.co2     1 ACP        -0.8561
     11 O2A        -3.8856    4.4438    2.9954 O.co2     1 ACP        -0.8561
     12 O3A        -2.3969    5.0932    1.0252 O.3       1 ACP        -0.8166
     13 O5'        -1.7337    3.1724    2.4754 O.3       1 ACP        -0.5737
     14 C5'        -0.8811    2.4285    1.6206 C.3       1 ACP         0.2197
     15 C4'        -0.1994    1.3333    2.4288 C.3       1 ACP         0.0944
     16 O4'        -1.1285    0.2356    2.5840 O.3       1 ACP        -0.4017
     17 C3'         1.0324    0.7610    1.7344 C.3       1 ACP         0.0859
     18 O3'         1.9175    0.2377    2.7247 O.3       1 ACP        -0.5941
     19 C2'         0.4468   -0.3802    0.9263 C.3       1 ACP         0.0924
     20 O2'         1.3993   -1.3703    0.5961 O.3       1 ACP        -0.5928
     21 C1'        -0.6159   -0.9100    1.8769 C.3       1 ACP         0.3967
     22 N9         -1.7127   -1.6108    1.2130 N.pl3     1 ACP        -0.6763
     23 C8         -2.8641   -1.0399    0.7392 C.ar      1 ACP         0.5586
     24 N7         -3.6659   -1.9257    0.1858 N.2       1 ACP        -0.5795
     25 C5         -3.0053   -3.1223    0.3069 C.ar      1 ACP        -0.2116
     26 C6         -3.3321   -4.4178   -0.0813 C.ar      1 ACP         0.7185
     27 N6         -4.5476   -4.6866   -0.7335 N.pl3     1 ACP        -0.9442
     28 N1         -2.4608   -5.4225    0.1773 N.ar      1 ACP        -0.8040
     29 C2         -1.3053   -5.1020    0.8081 C.ar      1 ACP         0.6560
     30 N3         -0.8788   -3.8921    1.2315 N.ar      1 ACP        -0.7058
     31 C4         -1.7870   -2.9477    0.9438 C.ar      1 ACP         0.5729
     32 HOG2        0.6443    4.0545   -0.6278 H         1 ACP         0.4440
     33 HOG3       -0.6880    4.5249   -3.1295 H         1 ACP         0.4440
     34 H3B1       -1.0087    7.4693    0.2500 H         1 ACP         0.1084
     35 H3B2       -1.8184    7.7478   -1.2892 H         1 ACP         0.1084
     36 H5'1       -1.4802    1.9929    0.8148 H         1 ACP         0.0281
     37 H5'2       -0.1370    3.1043    1.1873 H         1 ACP         0.0281
     38 H4'         0.0403    1.7078    3.4343 H         1 ACP         0.1082
     39 H3'         1.5906    1.4859    1.1353 H         1 ACP         0.0650
     40 HO3'        2.6839   -0.1150    2.2479 H         1 ACP         0.4300
     41 H2'        -0.0017    0.0018    0.0005 H         1 ACP         0.0785
     42 HO2'        0.9369   -2.0558    0.0825 H         1 ACP         0.4275
     43 H1'        -0.1998   -1.6319    2.6178 H         1 ACP         0.1009
     44 H8         -3.0609    0.0200    0.8250 H         1 ACP         0.1067
     45 HN61       -5.2046   -3.9433   -0.8775 H         1 ACP         0.4213
     46 HN62       -4.7849   -5.6332   -0.9625 H         1 ACP         0.4213
     47 H2         -0.6318   -5.9307    0.9993 H         1 ACP         0.0365
@<TRIPOS>BOND
     1    1    2 2
     2    1    3 1
     3    1    4 1
     4    1    8 1
     5    3   32 1
     6    4   33 1
     7    5    6 2
     8    5    7 1
     9    5    8 1
    10    5   12 1
    11    8   34 1
    12    8   35 1
    13    9   10 2
    14    9   11 1
    15    9   12 1
    16    9   13 1
    17   13   14 1
    18   14   15 1
    19   14   36 1
    20   14   37 1
    21   15   16 1
    22   15   17 1
    23   15   38 1
    24   16   21 1
    25   17   18 1
    26   17   19 1
    27   17   39 1
    28   18   40 1
    29   19   20 1
    30   19   21 1
    31   19   41 1
    32   20   42 1
    33   21   22 1
    34   21   43 1
    35   22   23 ar
    36   22   31 ar
    37   23   24 ar
    38   23   44 1
    39   24   25 ar
    40   25   26 ar
    41   25   31 ar
    42   26   27 1
    43   26   28 ar
    44   27   45 1
    45   27   46 1
    46   28   29 ar
    47   29   30 ar
    48   29   47 1
    49   30   31 ar
@<TRIPOS>SUBSTRUCTURE
     1 ACP         1 GROUP 0 A     ****
@<TRIPOS>MOLECULE
[[5-(6-aminopurin-9-yl)-3,4-dihydroxy-tetrahydrofuran-2-yl]methoxy-oxido-phosphoryl]oxy-(phosphonomethyl)phosphinate
   47    49     1     0     0
SMALL
USER_CHARGES

@<TRIPOS>ATOM
      1 PG          7.4253    4.3466    4.9756 P.3       1 ACP         1.6478
      2 O1G         8.2941    3.4907    4.1039 O.2       1 ACP        -0.9103
      3 O2G         7.7313    5.9319    4.9175 O.3       1 ACP        -0.7989
      4 O3G         7.4793    4.0074    6.5541 O.3       1 ACP        -0.7989
      5 PB          4.9604    4.7100    2.9453 P.3       1 ACP         1.4947
      6 O1B         5.3042    6.1610    2.7005 O.co2     1 ACP        -0.8554
      7 O2B         3.5389    4.1989    2.9022 O.co2     1 ACP        -0.8554
      8 C3B         5.6615    4.2509    4.5941 C.3       1 ACP        -0.6550
      9 PA          6.0979    3.6802    0.4053 P.3       1 ACP         1.5921
     10 O1A         7.0171    2.5220    0.0825 O.co2     1 ACP        -0.8561
     11 O2A         6.3985    5.0701   -0.1121 O.co2     1 ACP        -0.8561
     12 O3A         5.9165    3.7610    2.0265 O.3       1 ACP        -0.8166
     13 O5'         4.5669    3.2941   -0.0211 O.3       1 ACP        -0.5737
     14 C5'         4.0922    1.9801    0.2227 C.3       1 ACP         0.2197
     15 C4'         2.5944    2.0310    0.4653 C.3       1 ACP         0.0944
     16 O4'         1.9327    2.5740   -0.6889 O.3       1 ACP        -0.4017
     17 C3'         1.9685    0.6634    0.6767 C.3       1 ACP         0.0859
     18 O3'         2.1425    0.1975    1.9977 O.3       1 ACP        -0.5941
     19 C2'         0.5176    0.9128    0.3099 C.3       1 ACP         0.0924
     20 O2'        -0.2103    1.4454    1.4152 O.3       1 ACP        -0.5928
     21 C1'         0.6219    1.9765   -0.7844 C.3       1 ACP         0.3967
     22 N9          0.4237    1.4496   -2.1357 N.pl3     1 ACP        -0.6763
     23 C8          1.4026    0.9717   -2.9660 C.ar      1 ACP         0.5586
     24 N7          0.9183    0.5619   -4.1197 N.2       1 ACP        -0.5795
     25 C5         -0.4330    0.7845   -4.0331 C.ar      1 ACP        -0.2116
     26 C6         -1.4794    0.5615   -4.9225 C.ar      1 ACP         0.7185
     27 N6         -1.2378    0.0044   -6.1899 N.pl3     1 ACP        -0.9442
     28 N1         -2.7406    0.8885   -4.5512 N.ar      1 ACP        -0.8040
     29 C2         -2.9113    1.4216   -3.3172 C.ar      1 ACP         0.6560
     30 N3         -1.9824    1.6843   -2.3721 N.ar      1 ACP        -0.7058
     31 C4         -0.7613    1.3370   -2.8054 C.ar      1 ACP         0.5729
     32 HOG2        8.6218    6.2536    5.1737 H         1 ACP         0.4440
     33 HOG3        8.3366    4.0755    7.0257 H         1 ACP         0.4440
     34 H3B1        5.3396    3.2189    4.7737 H         1 ACP         0.1084
     35 H3B2        5.1415    4.8796    5.3258 H         1 ACP         0.1084
     36 H5'1        4.3181    1.3551   -0.6470 H         1 ACP         0.0281
     37 H5'2        4.6085    1.5740    1.0982 H         1 ACP         0.0281
     38 H4'         2.3751    2.7029    1.3156 H         1 ACP         0.1082
     39 H3'         2.4336   -0.1217   -0.0015 H         1 ACP         0.0650
     40 HO3'        1.7160   -0.6716    2.0397 H         1 ACP         0.4300
     41 H2'         0.0316    0.0155   -0.0339 H         1 ACP         0.0785
     42 HO2'       -0.1608    0.7921    2.1351 H         1 ACP         0.4275
     43 H1'        -0.1474    2.7798   -0.6651 H         1 ACP         0.1009
     44 H8          2.4442    0.9470   -2.6763 H         1 ACP         0.1067
     45 HN61       -0.2955   -0.1901   -6.4713 H         1 ACP         0.4213
     46 HN62       -1.9987   -0.1045   -6.8334 H         1 ACP         0.4213
     47 H2         -3.9335    1.6716   -3.0534 H         1 ACP         0.0365
@<TRIPOS>BOND
     1    1    2 2
     2    1    3 1
     3    1    4 1
     4    1    8 1
     5    3   32 1
     6    4   33 1
     7    5    6 2
     8    5    7 1
     9    5    8 1
    10    5   12 1
    11    8   34 1
    12    8   35 1
    13    9   10 2
    14    9   11 1
    15    9   12 1
    16    9   13 1
    17   13   14 1
    18   14   15 1
    19   14   36 1
    20   14   37 1
    21   15   16 1
    22   15   17 1
    23   15   38 1
    24   16   21 1
    25   17   18 1
    26   17   19 1
    27   17   39 1
    28   18   40 1
    29   19   20 1
    30   19   21 1
    31   19   41 1
    32   20   42 1
    33   21   22 1
    34   21   43 1
    35   22   23 ar
    36   22   31 ar
    37   23   24 ar
    38   23   44 1
    39   24   25 ar
    40   25   26 ar
    41   25   31 ar
    42   26   27 1
    43   26   28 ar
    44   27   45 1
    45   27   46 1
    46   28   29 ar
    47   29   30 ar
    48   29   47 1
    49   30   31 ar
@<TRIPOS>SUBSTRUCTURE
     1 ACP         1 GROUP 0 A     ****
@<TRIPOS>MOLECULE
[[5-(6-aminopurin-9-yl)-3,4-dihydroxy-tetrahydrofuran-2-yl]methoxy-oxido-phosphoryl]oxy-(phosphonomethyl)phosphinate
   47    49     1     0     0
SMALL
USER_CHARGES

@<TRIPOS>ATOM
      1 PG          5.4957    2.5999    5.3098 P.3       1 ACP         1.6478
      2 O1G         6.1379    2.4416    6.6551 O.2       1 ACP        -0.9103
      3 O2G         3.9025    2.3354    5.2659 O.3       1 ACP        -0.7989
      4 O3G         6.0725    1.6359    4.1489 O.3       1 ACP        -0.7989
      5 PB          4.9604    4.7100    2.9453 P.3       1 ACP         1.4947
      6 O1B         5.3042    6.1610    2.7005 O.co2     1 ACP        -0.8554
      7 O2B         3.5389    4.1989    2.9022 O.co2     1 ACP        -0.8554
      8 C3B         5.6615    4.2509    4.5941 C.3       1 ACP        -0.6550
      9 PA          6.0979    3.6802    0.4053 P.3       1 ACP         1.5921
     10 O1A         7.0171    2.5220    0.0825 O.co2     1 ACP        -0.8561
     11 O2A         6.3985    5.0701   -0.1121 O.co2     1 ACP        -0.8561
     12 O3A         5.9165    3.7610    2.0265 O.3       1 ACP        -0.8166
     13 O5'         4.5669    3.2941   -0.0211 O.3       1 ACP        -0.5737
     14 C5'         4.0922    1.9801    0.2227 C.3       1 ACP         0.2197
     15 C4'         2.5944    2.0310    0.4653 C.3       1 ACP         0.0944
     16 O4'         1.9327    2.5740   -0.6889 O.3       1 ACP        -0.4017
     17 C3'         1.9685    0.6634    0.6767 C.3       1 ACP         0.0859
     18 O3'         2.1425    0.1975    1.9977 O.3       1 ACP        -0.5941
     19 C2'         0.5176    0.9128    0.3099 C.3       1 ACP         0.0924
     20 O2'        -0.2103    1.4454    1.4152 O.3       1 ACP        -0.5928
     21 C1'         0.6219    1.9765   -0.7844 C.3       1 ACP         0.3967
     22 N9          0.4237    1.4496   -2.1357 N.pl3     1 ACP        -0.6763
     23 C8         -0.7736    1.3475   -2.7932 C.ar      1 ACP         0.5586
     24 N7         -0.6356    0.8373   -3.9991 N.2       1 ACP        -0.5795
     25 C5          0.7095    0.5981   -4.1281 C.ar      1 ACP        -0.2116
     26 C6          1.4733    0.0704   -5.1643 C.ar      1 ACP         0.7185
     27 N6          0.8693   -0.3355   -6.3666 N.pl3     1 ACP        -0.9442
     28 N1          2.8130   -0.0482   -5.0009 N.ar      1 ACP        -0.8040
     29 C2          3.3380    0.3602   -3.8204 C.ar      1 ACP         0.6560
     30 N3          2.7052    0.8841   -2.7480 N.ar      1 ACP        -0.7058
     31 C4          1.3867    0.9726   -2.9785 C.ar      1 ACP         0.5729
     32 HOG2        3.5595    1.4554    5.5304 H         1 ACP         0.4440
     33 HOG3        6.0154    0.6638    4.2665 H         1 ACP         0.4440
     34 H3B1        5.2317    4.9648    5.3057 H         1 ACP         0.1084
     35 H3B2        6.7343    4.4669    4.5335 H         1 ACP         0.1084
     36 H5'1        4.3181    1.3551   -0.6470 H         1 ACP         0.0281
     37 H5'2        4.6085    1.5740    1.0982 H         1 ACP         0.0281
     38 H4'         2.3751    2.7029    1.3156 H         1 ACP         0.1082
     39 H3'         2.4336   -0.1217   -0.0015 H         1 ACP         0.0650
     40 HO3'        1.7160   -0.6716    2.0397 H         1 ACP         0.4300
     41 H2'         0.0316    0.0155   -0.0339 H         1 ACP         0.0785
     42 HO2'       -0.1608    0.7921    2.1351 H         1 ACP         0.4275
     43 H1'        -0.1474    2.7798   -0.6651 H         1 ACP         0.1009
     44 H8         -1.7070    1.6599   -2.3451 H         1 ACP         0.1067
     45 HN61       -0.1277   -0.2866   -6.4583 H         1 ACP         0.4213
     46 HN62        1.4308   -0.7566   -7.0823 H         1 ACP         0.4213
     47 H2          4.4130    0.2505   -3.7241 H         1 ACP         0.0365
@<TRIPOS>BOND
     1    1    2 2
     2    1    3 1
     3    1    4 1
     4    1    8 1
     5    3   32 1
     6    4   33 1
     7    5    6 2
     8    5    7 1
     9    5    8 1
    10    5   12 1
    11    8   34 1
    12    8   35 1
    13    9   10 2
    14    9   11 1
    15    9   12 1
    16    9   13 1
    17   13   14 1
    18   14   15 1
    19   14   36 1
    20   14   37 1
    21   15   16 1
    22   15   17 1
    23   15   38 1
    24   16   21 1
    25   17   18 1
    26   17   19 1
    27   17   39 1
    28   18   40 1
    29   19   20 1
    30   19   21 1
    31   19   41 1
    32   20   42 1
    33   21   22 1
    34   21   43 1
    35   22   23 ar
    36   22   31 ar
    37   23   24 ar
    38   23   44 1
    39   24   25 ar
    40   25   26 ar
    41   25   31 ar
    42   26   27 1
    43   26   28 ar
    44   27   45 1
    45   27   46 1
    46   28   29 ar
    47   29   30 ar
    48   29   47 1
    49   30   31 ar
@<TRIPOS>SUBSTRUCTURE
     1 ACP         1 GROUP 0 A     ****
@<TRIPOS>MOLECULE
[[5-(6-aminopurin-9-yl)-3,4-dihydroxy-tetrahydrofuran-2-yl]methoxy-oxido-phosphoryl]oxy-(phosphonomethyl)phosphinate
   47    49     1     0     0
SMALL
USER_CHARGES

@<TRIPOS>ATOM
      1 PG          8.8297   -1.3569    2.0434 P.3       1 ACP         1.6478
      2 O1G         9.3884   -2.6050    1.4290 O.2       1 ACP        -0.9103
      3 O2G         9.2503    0.0230    1.3161 O.3       1 ACP        -0.7989
      4 O3G         9.2273   -1.1076    3.5892 O.3       1 ACP        -0.7989
      5 PB          5.9944   -1.3342    0.5299 P.3       1 ACP         1.4947
      6 O1B         4.5477   -1.2468    0.9577 O.co2     1 ACP        -0.8554
      7 O2B         6.5169   -2.4666   -0.3234 O.co2     1 ACP        -0.8554
      8 C3B         7.0244   -1.2802    2.0652 C.3       1 ACP        -0.6550
      9 PA          5.8978    0.9307   -1.3850 P.3       1 ACP         1.5921
     10 O1A         5.9190    0.0229   -2.5958 O.co2     1 ACP        -0.8561
     11 O2A         6.5864    2.2777   -1.4195 O.co2     1 ACP        -0.8561
     12 O3A         6.4633    0.0945   -0.1011 O.3       1 ACP        -0.8166
     13 O5'         4.3514    1.1573   -0.9028 O.3       1 ACP        -0.5737
     14 C5'         4.0922    1.9801    0.2227 C.3       1 ACP         0.2197
     15 C4'         2.5944    2.0310    0.4653 C.3       1 ACP         0.0944
     16 O4'         1.9327    2.5740   -0.6889 O.3       1 ACP        -0.4017
     17 C3'         1.9685    0.6634    0.6767 C.3       1 ACP         0.0859
     18 O3'         2.1425    0.1975    1.9977 O.3       1 ACP        -0.5941
     19 C2'         0.5176    0.9128    0.3099 C.3       1 ACP         0.0924
     20 O2'        -0.2103    1.4454    1.4152 O.3       1 ACP        -0.5928
     21 C1'         0.6219    1.9765   -0.7844 C.3       1 ACP         0.3967
     22 N9          0.4237    1.4496   -2.1357 N.pl3     1 ACP        -0.6763
     23 C8          1.4026    0.9717   -2.9660 C.ar      1 ACP         0.5586
     24 N7          0.9183    0.5619   -4.1197 N.2       1 ACP        -0.5795
     25 C5         -0.4330    0.7845   -4.0331 C.ar      1 ACP        -0.2116
     26 C6         -1.4794    0.5615   -4.9225 C.ar      1 ACP         0.7185
     27 N6         -1.2378    0.0044   -6.1899 N.pl3     1 ACP        -0.9442
     28 N1         -2.7406    0.8885   -4.5512 N.ar      1 ACP        -0.8040
     29 C2         -2.9113    1.4216   -3.3172 C.ar      1 ACP         0.6560
     30 N3         -1.9824    1.6843   -2.3721 N.ar      1 ACP        -0.7058
     31 C4         -0.7613    1.3370   -2.8054 C.ar      1 ACP         0.5729
     32 HOG2       10.2007    0.2578    1.2560 H         1 ACP         0.4440
     33 HOG3       10.1747   -1.0219    3.8283 H         1 ACP         0.4440
     34 H3B1        6.6655   -2.1064    2.6894 H         1 ACP         0.1084
     35 H3B2        6.7500   -0.3507    2.5770 H         1 ACP         0.1084
     36 H5'1        4.6070    1.5616    1.0933 H         1 ACP         0.0281
     37 H5'2        4.4825    2.9835    0.0251 H         1 ACP         0.0281
     38 H4'         2.3751    2.7029    1.3156 H         1 ACP         0.1082
     39 H3'         2.4336   -0.1217   -0.0015 H         1 ACP         0.0650
     40 HO3'        1.7160   -0.6716    2.0397 H         1 ACP         0.4300
     41 H2'         0.0316    0.0155   -0.0339 H         1 ACP         0.0785
     42 HO2'       -0.1608    0.7921    2.1351 H         1 ACP         0.4275
     43 H1'        -0.1474    2.7798   -0.6651 H         1 ACP         0.1009
     44 H8          2.4442    0.9470   -2.6763 H         1 ACP         0.1067
     45 HN61       -0.2955   -0.1901   -6.4713 H         1 ACP         0.4213
     46 HN62       -1.9987   -0.1045   -6.8334 H         1 ACP         0.4213
     47 H2         -3.9335    1.6716   -3.0534 H         1 ACP         0.0365
@<TRIPOS>BOND
     1    1    2 2
     2    1    3 1
     3    1    4 1
     4    1    8 1
     5    3   32 1
     6    4   33 1
     7    5    6 2
     8    5    7 1
     9    5    8 1
    10    5   12 1
    11    8   34 1
    12    8   35 1
    13    9   10 2
    14    9   11 1
    15    9   12 1
    16    9   13 1
    17   13   14 1
    18   14   15 1
    19   14   36 1
    20   14   37 1
    21   15   16 1
    22   15   17 1
    23   15   38 1
    24   16   21 1
    25   17   18 1
    26   17   19 1
    27   17   39 1
    28   18   40 1
    29   19   20 1
    30   19   21 1
    31   19   41 1
    32   20   42 1
    33   21   22 1
    34   21   43 1
    35   22   23 ar
    36   22   31 ar
    37   23   24 ar
    38   23   44 1
    39   24   25 ar
    40   25   26 ar
    41   25   31 ar
    42   26   27 1
    43   26   28 ar
    44   27   45 1
    45   27   46 1
    46   28   29 ar
    47   29   30 ar
    48   29   47 1
    49   30   31 ar
@<TRIPOS>SUBSTRUCTURE
     1 ACP         1 GROUP 0 A     ****
@<TRIPOS>MOLECULE
[[5-(6-aminopurin-9-yl)-3,4-dihydroxy-tetrahydrofuran-2-yl]methoxy-oxido-phosphoryl]oxy-(phosphonomethyl)phosphinate
   47    49     1     0     0
SMALL
USER_CHARGES

@<TRIPOS>ATOM
      1 PG          0.0547    0.7664   -8.2884 P.3       1 ACP         1.6478
      2 O1G         1.1922    0.3575   -9.1750 O.2       1 ACP        -0.9103
      3 O2G        -0.4780   -0.3720   -7.2733 O.3       1 ACP        -0.7989
      4 O3G        -1.2833    1.2472   -9.0553 O.3       1 ACP        -0.7989
      5 PB         -0.8048    2.8562   -6.0028 P.3       1 ACP         1.4947
      6 O1B        -1.9881    3.3372   -6.8102 O.co2     1 ACP        -0.8554
      7 O2B        -0.0504    3.7626   -5.0578 O.co2     1 ACP        -0.8554
      8 C3B         0.4244    2.1566   -7.1946 C.3       1 ACP        -0.6550
      9 PA         -2.3605    1.1374   -4.1504 P.3       1 ACP         1.5921
     10 O1A        -2.1808   -0.2864   -3.6697 O.co2     1 ACP        -0.8561
     11 O2A        -3.6867    1.5988   -4.7146 O.co2     1 ACP        -0.8561
     12 O3A        -1.1922    1.4662   -5.2433 O.3       1 ACP        -0.8166
     13 O5'        -1.9208    2.1717   -2.9622 O.3       1 ACP        -0.5737
     14 C5'        -0.7794    1.8744   -2.1748 C.3       1 ACP         0.2197
     15 C4'        -0.9699    2.4597   -0.7819 C.3       1 ACP         0.0944
     16 O4'        -2.1475    1.8640   -0.2014 O.3       1 ACP        -0.4017
     17 C3'         0.1697    2.1347    0.1695 C.3       1 ACP         0.0859
     18 O3'         0.1809    3.0982    1.2223 O.3       1 ACP        -0.5941
     19 C2'        -0.2543    0.7880    0.7187 C.3       1 ACP         0.0924
     20 O2'         0.3606    0.4944    1.9582 O.3       1 ACP        -0.5928
     21 C1'        -1.7682    0.9516    0.8548 C.3       1 ACP         0.3967
     22 N9         -2.5926   -0.2553    0.7436 N.pl3     1 ACP        -0.6763
     23 C8         -3.5599   -0.4866   -0.1983 C.ar      1 ACP         0.5586
     24 N7         -4.1294   -1.6639   -0.0461 N.2       1 ACP        -0.5795
     25 C5         -3.5041   -2.2191    1.0420 C.ar      1 ACP        -0.2116
     26 C6         -3.6604   -3.4390    1.6925 C.ar      1 ACP         0.7185
     27 N6         -4.6108   -4.3735    1.2468 N.pl3     1 ACP        -0.9442
     28 N1         -2.8820   -3.7179    2.7657 N.ar      1 ACP        -0.8040
     29 C2         -1.9837   -2.7784    3.1481 C.ar      1 ACP         0.6560
     30 N3         -1.7408   -1.5668    2.6022 N.ar      1 ACP        -0.7058
     31 C4         -2.5438   -1.3578    1.5483 C.ar      1 ACP         0.5729
     32 HOG2       -0.8255   -1.2120   -7.6416 H         1 ACP         0.4440
     33 HOG3       -1.7366    0.6204   -9.6584 H         1 ACP         0.4440
     34 H3B1        1.2955    1.8797   -6.5902 H         1 ACP         0.1084
     35 H3B2        0.7314    2.9929   -7.8330 H         1 ACP         0.1084
     36 H5'1       -0.6602    0.7877   -2.1203 H         1 ACP         0.0281
     37 H5'2        0.1041    2.3072   -2.6545 H         1 ACP         0.0281
     38 H4'        -1.1469    3.5409   -0.8522 H         1 ACP         0.1082
     39 H3'         1.1601    2.1310   -0.2934 H         1 ACP         0.0650
     40 HO3'        0.3098    3.9616    0.8017 H         1 ACP         0.4300
     41 H2'        -0.0024   -0.0091    0.0062 H         1 ACP         0.0785
     42 HO2'        0.0384   -0.3797    2.2403 H         1 ACP         0.4275
     43 H1'        -2.0584    1.4255    1.8301 H         1 ACP         0.1009
     44 H8         -3.8030    0.2355   -0.9657 H         1 ACP         0.1067
     45 HN61       -5.2130   -4.1372    0.4810 H         1 ACP         0.4213
     46 HN62       -4.7404   -5.2263    1.7576 H         1 ACP         0.4213
     47 H2         -1.3778   -3.0348    4.0107 H         1 ACP         0.0365
@<TRIPOS>BOND
     1    1    2 2
     2    1    3 1
     3    1    4 1
     4    1    8 1
     5    3   32 1
     6    4   33 1
     7    5    6 2
     8    5    7 1
     9    5    8 1
    10    5   12 1
    11    8   34 1
    12    8   35 1
    13    9   10 2
    14    9   11 1
    15    9   12 1
    16    9   13 1
    17   13   14 1
    18   14   15 1
    19   14   36 1
    20   14   37 1
    21   15   16 1
    22   15   17 1
    23   15   38 1
    24   16   21 1
    25   17   18 1
    26   17   19 1
    27   17   39 1
    28   18   40 1
    29   19   20 1
    30   19   21 1
    31   19   41 1
    32   20   42 1
    33   21   22 1
    34   21   43 1
    35   22   23 ar
    36   22   31 ar
    37   23   24 ar
    38   23   44 1
    39   24   25 ar
    40   25   26 ar
    41   25   31 ar
    42   26   27 1
    43   26   28 ar
    44   27   45 1
    45   27   46 1
    46   28   29 ar
    47   29   30 ar
    48   29   47 1
    49   30   31 ar
@<TRIPOS>SUBSTRUCTURE
     1 ACP         1 GROUP 0 A     ****
@<TRIPOS>MOLECULE
[[5-(6-aminopurin-9-yl)-3,4-dihydroxy-tetrahydrofuran-2-yl]methoxy-oxido-phosphoryl]oxy-(phosphonomethyl)phosphinate
   47    49     1     0     0
SMALL
USER_CHARGES

@<TRIPOS>ATOM
      1 PG          7.0689    1.1801    3.7804 P.3       1 ACP         1.6478
      2 O1G         5.6757    1.1278    3.2293 O.2       1 ACP        -0.9103
      3 O2G         8.0844    0.0620    3.2071 O.3       1 ACP        -0.7989
      4 O3G         7.1868    1.0138    5.3829 O.3       1 ACP        -0.7989
      5 PB          8.2764    3.3675    1.7586 P.3       1 ACP         1.4947
      6 O1B         9.1186    2.3305    1.0523 O.co2     1 ACP        -0.8554
      7 O2B         8.7143    4.8074    1.8937 O.co2     1 ACP        -0.8554
      8 C3B         7.9387    2.7319    3.4624 C.3       1 ACP        -0.6550
      9 PA          6.1592    3.5244   -0.3148 P.3       1 ACP         1.5921
     10 O1A         6.6744    2.4082   -1.1976 O.co2     1 ACP        -0.8561
     11 O2A         6.3656    4.9722   -0.7036 O.co2     1 ACP        -0.8561
     12 O3A         6.7482    3.3058    1.1928 O.3       1 ACP        -0.8166
     13 O5'         4.5669    3.2941   -0.0211 O.3       1 ACP        -0.5737
     14 C5'         4.0922    1.9801    0.2227 C.3       1 ACP         0.2197
     15 C4'         2.5944    2.0310    0.4653 C.3       1 ACP         0.0944
     16 O4'         1.9327    2.5740   -0.6889 O.3       1 ACP        -0.4017
     17 C3'         1.9685    0.6634    0.6767 C.3       1 ACP         0.0859
     18 O3'         2.1425    0.1975    1.9977 O.3       1 ACP        -0.5941
     19 C2'         0.5176    0.9128    0.3099 C.3       1 ACP         0.0924
     20 O2'        -0.2103    1.4454    1.4152 O.3       1 ACP        -0.5928
     21 C1'         0.6219    1.9765   -0.7844 C.3       1 ACP         0.3967
     22 N9          0.4237    1.4496   -2.1357 N.pl3     1 ACP        -0.6763
     23 C8         -0.7736    1.3475   -2.7932 C.ar      1 ACP         0.5586
     24 N7         -0.6356    0.8373   -3.9991 N.2       1 ACP        -0.5795
     25 C5          0.7095    0.5981   -4.1281 C.ar      1 ACP        -0.2116
     26 C6          1.4733    0.0704   -5.1643 C.ar      1 ACP         0.7185
     27 N6          0.8693   -0.3355   -6.3666 N.pl3     1 ACP        -0.9442
     28 N1          2.8130   -0.0482   -5.0009 N.ar      1 ACP        -0.8040
     29 C2          3.3380    0.3602   -3.8204 C.ar      1 ACP         0.6560
     30 N3          2.7052    0.8841   -2.7480 N.ar      1 ACP        -0.7058
     31 C4          1.3867    0.9726   -2.9785 C.ar      1 ACP         0.5729
     32 HOG2        7.8706   -0.8861    3.3388 H         1 ACP         0.4440
     33 HOG3        6.8546    0.1911    5.8010 H         1 ACP         0.4440
     34 H3B1        7.3868    3.5308    3.9704 H         1 ACP         0.1084
     35 H3B2        8.9159    2.6570    3.9528 H         1 ACP         0.1084
     36 H5'1        4.3181    1.3551   -0.6470 H         1 ACP         0.0281
     37 H5'2        4.6085    1.5740    1.0982 H         1 ACP         0.0281
     38 H4'         2.3751    2.7029    1.3156 H         1 ACP         0.1082
     39 H3'         2.4336   -0.1217   -0.0015 H         1 ACP         0.0650
     40 HO3'        1.7160   -0.6716    2.0397 H         1 ACP         0.4300
     41 H2'         0.0316    0.0155   -0.0339 H         1 ACP         0.0785
     42 HO2'       -0.1608    0.7921    2.1351 H         1 ACP         0.4275
     43 H1'        -0.1474    2.7798   -0.6651 H         1 ACP         0.1009
     44 H8         -1.7070    1.6599   -2.3451 H         1 ACP         0.1067
     45 HN61       -0.1277   -0.2866   -6.4583 H         1 ACP         0.4213
     46 HN62        1.4308   -0.7566   -7.0823 H         1 ACP         0.4213
     47 H2          4.4130    0.2505   -3.7241 H         1 ACP         0.0365
@<TRIPOS>BOND
     1    1    2 2
     2    1    3 1
     3    1    4 1
     4    1    8 1
     5    3   32 1
     6    4   33 1
     7    5    6 2
     8    5    7 1
     9    5    8 1
    10    5   12 1
    11    8   34 1
    12    8   35 1
    13    9   10 2
    14    9   11 1
    15    9   12 1
    16    9   13 1
    17   13   14 1
    18   14   15 1
    19   14   36 1
    20   14   37 1
    21   15   16 1
    22   15   17 1
    23   15   38 1
    24   16   21 1
    25   17   18 1
    26   17   19 1
    27   17   39 1
    28   18   40 1
    29   19   20 1
    30   19   21 1
    31   19   41 1
    32   20   42 1
    33   21   22 1
    34   21   43 1
    35   22   23 ar
    36   22   31 ar
    37   23   24 ar
    38   23   44 1
    39   24   25 ar
    40   25   26 ar
    41   25   31 ar
    42   26   27 1
    43   26   28 ar
    44   27   45 1
    45   27   46 1
    46   28   29 ar
    47   29   30 ar
    48   29   47 1
    49   30   31 ar
@<TRIPOS>SUBSTRUCTURE
     1 ACP         1 GROUP 0 A     ****
@<TRIPOS>MOLECULE
[[5-(6-aminopurin-9-yl)-3,4-dihydroxy-tetrahydrofuran-2-yl]methoxy-oxido-phosphoryl]oxy-(phosphonomethyl)phosphinate
   47    49     1     0     0
SMALL
USER_CHARGES

@<TRIPOS>ATOM
      1 PG         -5.5549    3.3628   -0.7715 P.3       1 ACP         1.6478
      2 O1G        -6.1929    2.5456   -1.8544 O.2       1 ACP        -0.9103
      3 O2G        -4.6940    2.5285    0.3115 O.3       1 ACP        -0.7989
      4 O3G        -6.5744    4.2254    0.1374 O.3       1 ACP        -0.7989
      5 PB         -3.4601    5.7409   -0.2367 P.3       1 ACP         1.4947
      6 O1B        -4.4871    6.5492    0.5220 O.co2     1 ACP        -0.8554
      7 O2B        -2.3625    6.3886   -1.0487 O.co2     1 ACP        -0.8554
      8 C3B        -4.3829    4.6032   -1.3659 C.3       1 ACP        -0.6550
      9 PA         -2.0037    4.7529    2.1525 P.3       1 ACP         1.5921
     10 O1A        -2.9381    5.3267    3.1957 O.co2     1 ACP        -0.8561
     11 O2A        -0.6728    5.4124    1.8637 O.co2     1 ACP        -0.8561
     12 O3A        -2.8235    4.6072    0.7474 O.3       1 ACP        -0.8166
     13 O5'        -1.7337    3.1724    2.4754 O.3       1 ACP        -0.5737
     14 C5'        -0.8811    2.4285    1.6206 C.3       1 ACP         0.2197
     15 C4'        -0.1994    1.3333    2.4288 C.3       1 ACP         0.0944
     16 O4'        -1.1285    0.2356    2.5840 O.3       1 ACP        -0.4017
     17 C3'         1.0324    0.7610    1.7344 C.3       1 ACP         0.0859
     18 O3'         1.9175    0.2377    2.7247 O.3       1 ACP        -0.5941
     19 C2'         0.4468   -0.3802    0.9263 C.3       1 ACP         0.0924
     20 O2'         1.3993   -1.3703    0.5961 O.3       1 ACP        -0.5928
     21 C1'        -0.6159   -0.9100    1.8769 C.3       1 ACP         0.3967
     22 N9         -1.7127   -1.6108    1.2130 N.pl3     1 ACP        -0.6763
     23 C8         -2.0877   -2.9101    1.4304 C.ar      1 ACP         0.5586
     24 N7         -3.1152   -3.2613    0.6857 N.2       1 ACP        -0.5795
     25 C5         -3.4186   -2.1409   -0.0462 C.ar      1 ACP        -0.2116
     26 C6         -4.3953   -1.8809   -1.0023 C.ar      1 ACP         0.7185
     27 N6         -5.3118   -2.8767   -1.3812 N.pl3     1 ACP        -0.9442
     28 N1         -4.4538   -0.6507   -1.5667 N.ar      1 ACP        -0.8040
     29 C2         -3.5442    0.2679   -1.1609 C.ar      1 ACP         0.6560
     30 N3         -2.5561    0.1361   -0.2491 N.ar      1 ACP        -0.7058
     31 C4         -2.5568   -1.1019    0.2674 C.ar      1 ACP         0.5729
     32 HOG2       -5.1419    1.8368    0.8435 H         1 ACP         0.4440
     33 HOG3       -7.2700    3.7571    0.6462 H         1 ACP         0.4440
     34 H3B1       -3.6157    4.0812   -1.9488 H         1 ACP         0.1084
     35 H3B2       -4.9280    5.2503   -2.0624 H         1 ACP         0.1084
     36 H5'1       -1.4802    1.9929    0.8148 H         1 ACP         0.0281
     37 H5'2       -0.1370    3.1043    1.1873 H         1 ACP         0.0281
     38 H4'         0.0403    1.7078    3.4343 H         1 ACP         0.1082
     39 H3'         1.5906    1.4859    1.1353 H         1 ACP         0.0650
     40 HO3'        2.6839   -0.1150    2.2479 H         1 ACP         0.4300
     41 H2'        -0.0017    0.0018    0.0005 H         1 ACP         0.0785
     42 HO2'        2.0953   -0.9375    0.0709 H         1 ACP         0.4275
     43 H1'        -0.1998   -1.6319    2.6178 H         1 ACP         0.1009
     44 H8         -1.5778   -3.5473    2.1399 H         1 ACP         0.1067
     45 HN61       -5.2294   -3.7965   -0.9914 H         1 ACP         0.4213
     46 HN62       -5.9774   -2.6837   -2.1055 H         1 ACP         0.4213
     47 H2         -3.6201    1.2414   -1.6336 H         1 ACP         0.0365
@<TRIPOS>BOND
     1    1    2 2
     2    1    3 1
     3    1    4 1
     4    1    8 1
     5    3   32 1
     6    4   33 1
     7    5    6 2
     8    5    7 1
     9    5    8 1
    10    5   12 1
    11    8   34 1
    12    8   35 1
    13    9   10 2
    14    9   11 1
    15    9   12 1
    16    9   13 1
    17   13   14 1
    18   14   15 1
    19   14   36 1
    20   14   37 1
    21   15   16 1
    22   15   17 1
    23   15   38 1
    24   16   21 1
    25   17   18 1
    26   17   19 1
    27   17   39 1
    28   18   40 1
    29   19   20 1
    30   19   21 1
    31   19   41 1
    32   20   42 1
    33   21   22 1
    34   21   43 1
    35   22   23 ar
    36   22   31 ar
    37   23   24 ar
    38   23   44 1
    39   24   25 ar
    40   25   26 ar
    41   25   31 ar
    42   26   27 1
    43   26   28 ar
    44   27   45 1
    45   27   46 1
    46   28   29 ar
    47   29   30 ar
    48   29   47 1
    49   30   31 ar
@<TRIPOS>SUBSTRUCTURE
     1 ACP         1 GROUP 0 A     ****
@<TRIPOS>MOLECULE
[[5-(6-aminopurin-9-yl)-3,4-dihydroxy-tetrahydrofuran-2-yl]methoxy-oxido-phosphoryl]oxy-(phosphonomethyl)phosphinate
   47    49     1     0     0
SMALL
USER_CHARGES

@<TRIPOS>ATOM
      1 PG          7.4449    2.4130    5.5021 P.3       1 ACP         1.6478
      2 O1G         7.7477    1.5293    6.6745 O.2       1 ACP        -0.9103
      3 O2G         8.1046    1.9560    4.0999 O.3       1 ACP        -0.7989
      4 O3G         7.9099    3.9524    5.6564 O.3       1 ACP        -0.7989
      5 PB          5.0457    3.5786    3.7090 P.3       1 ACP         1.4947
      6 O1B         5.4705    5.0052    3.9694 O.co2     1 ACP        -0.8554
      7 O2B         3.6005    3.1933    3.4931 O.co2     1 ACP        -0.8554
      8 C3B         5.6869    2.5516    5.1072 C.3       1 ACP        -0.6550
      9 PA          6.1804    3.4026    0.9727 P.3       1 ACP         1.5921
     10 O1A         7.0439    2.3709    0.2795 O.co2     1 ACP        -0.8561
     11 O2A         6.5646    4.8662    0.9557 O.co2     1 ACP        -0.8561
     12 O3A         5.9695    2.9423    2.5255 O.3       1 ACP        -0.8166
     13 O5'         4.6404    3.2702    0.4379 O.3       1 ACP        -0.5737
     14 C5'         4.0922    1.9801    0.2227 C.3       1 ACP         0.2197
     15 C4'         2.5944    2.0310    0.4653 C.3       1 ACP         0.0944
     16 O4'         1.9327    2.5740   -0.6889 O.3       1 ACP        -0.4017
     17 C3'         1.9685    0.6634    0.6767 C.3       1 ACP         0.0859
     18 O3'         2.1425    0.1975    1.9977 O.3       1 ACP        -0.5941
     19 C2'         0.5176    0.9128    0.3099 C.3       1 ACP         0.0924
     20 O2'        -0.2103    1.4454    1.4152 O.3       1 ACP        -0.5928
     21 C1'         0.6219    1.9765   -0.7844 C.3       1 ACP         0.3967
     22 N9          0.4237    1.4496   -2.1357 N.pl3     1 ACP        -0.6763
     23 C8          1.4026    0.9717   -2.9660 C.ar      1 ACP         0.5586
     24 N7          0.9183    0.5619   -4.1197 N.2       1 ACP        -0.5795
     25 C5         -0.4330    0.7845   -4.0331 C.ar      1 ACP        -0.2116
     26 C6         -1.4794    0.5615   -4.9225 C.ar      1 ACP         0.7185
     27 N6         -1.2378    0.0044   -6.1899 N.pl3     1 ACP        -0.9442
     28 N1         -2.7406    0.8885   -4.5512 N.ar      1 ACP        -0.8040
     29 C2         -2.9113    1.4216   -3.3172 C.ar      1 ACP         0.6560
     30 N3         -1.9824    1.6843   -2.3721 N.ar      1 ACP        -0.7058
     31 C4         -0.7613    1.3370   -2.8054 C.ar      1 ACP         0.5729
     32 HOG2        9.0810    1.8910    4.0331 H         1 ACP         0.4440
     33 HOG3        8.8606    4.1500    5.7947 H         1 ACP         0.4440
     34 H3B1        5.3074    1.5395    4.9271 H         1 ACP         0.1084
     35 H3B2        5.1855    2.9252    6.0073 H         1 ACP         0.1084
     36 H5'1        4.3030    1.6732   -0.8066 H         1 ACP         0.0281
     37 H5'2        4.5679    1.2741    0.9106 H         1 ACP         0.0281
     38 H4'         2.3751    2.7029    1.3156 H         1 ACP         0.1082
     39 H3'         2.4336   -0.1217   -0.0015 H         1 ACP         0.0650
     40 HO3'        1.7160   -0.6716    2.0397 H         1 ACP         0.4300
     41 H2'         0.0316    0.0155   -0.0339 H         1 ACP         0.0785
     42 HO2'       -1.1270    1.5823    1.1180 H         1 ACP         0.4275
     43 H1'        -0.1474    2.7798   -0.6651 H         1 ACP         0.1009
     44 H8          2.4442    0.9470   -2.6763 H         1 ACP         0.1067
     45 HN61       -2.0105   -0.1920   -6.7974 H         1 ACP         0.4213
     46 HN62       -0.3075   -0.2773   -6.4350 H         1 ACP         0.4213
     47 H2         -3.9335    1.6716   -3.0534 H         1 ACP         0.0365
@<TRIPOS>BOND
     1    1    2 2
     2    1    3 1
     3    1    4 1
     4    1    8 1
     5    3   32 1
     6    4   33 1
     7    5    6 2
     8    5    7 1
     9    5    8 1
    10    5   12 1
    11    8   34 1
    12    8   35 1
    13    9   10 2
    14    9   11 1
    15    9   12 1
    16    9   13 1
    17   13   14 1
    18   14   15 1
    19   14   36 1
    20   14   37 1
    21   15   16 1
    22   15   17 1
    23   15   38 1
    24   16   21 1
    25   17   18 1
    26   17   19 1
    27   17   39 1
    28   18   40 1
    29   19   20 1
    30   19   21 1
    31   19   41 1
    32   20   42 1
    33   21   22 1
    34   21   43 1
    35   22   23 ar
    36   22   31 ar
    37   23   24 ar
    38   23   44 1
    39   24   25 ar
    40   25   26 ar
    41   25   31 ar
    42   26   27 1
    43   26   28 ar
    44   27   45 1
    45   27   46 1
    46   28   29 ar
    47   29   30 ar
    48   29   47 1
    49   30   31 ar
@<TRIPOS>SUBSTRUCTURE
     1 ACP         1 GROUP 0 A     ****
@<TRIPOS>MOLECULE
[[5-(6-aminopurin-9-yl)-3,4-dihydroxy-tetrahydrofuran-2-yl]methoxy-oxido-phosphoryl]oxy-(phosphonomethyl)phosphinate
   47    49     1     0     0
SMALL
USER_CHARGES

@<TRIPOS>ATOM
      1 PG          5.0748    2.0943    4.8248 P.3       1 ACP         1.6478
      2 O1G         4.2572    1.9627    6.0744 O.2       1 ACP        -0.9103
      3 O2G         4.2528    1.9602    3.4404 O.3       1 ACP        -0.7989
      4 O3G         6.2697    1.0195    4.6622 O.3       1 ACP        -0.7989
      5 PB          6.9936    4.0989    3.2032 P.3       1 ACP         1.4947
      6 O1B         8.1143    3.0859    3.1681 O.co2     1 ACP        -0.8554
      7 O2B         7.2519    5.5872    3.2485 O.co2     1 ACP        -0.8554
      8 C3B         5.9219    3.6811    4.6516 C.3       1 ACP        -0.6550
      9 PA          6.0979    3.6802    0.4053 P.3       1 ACP         1.5921
     10 O1A         7.0171    2.5220    0.0825 O.co2     1 ACP        -0.8561
     11 O2A         6.3985    5.0701   -0.1121 O.co2     1 ACP        -0.8561
     12 O3A         5.9165    3.7610    2.0265 O.3       1 ACP        -0.8166
     13 O5'         4.5669    3.2941   -0.0211 O.3       1 ACP        -0.5737
     14 C5'         4.0922    1.9801    0.2227 C.3       1 ACP         0.2197
     15 C4'         2.5944    2.0310    0.4653 C.3       1 ACP         0.0944
     16 O4'         1.9327    2.5740   -0.6889 O.3       1 ACP        -0.4017
     17 C3'         1.9685    0.6634    0.6767 C.3       1 ACP         0.0859
     18 O3'         2.1425    0.1975    1.9977 O.3       1 ACP        -0.5941
     19 C2'         0.5176    0.9128    0.3099 C.3       1 ACP         0.0924
     20 O2'        -0.2103    1.4454    1.4152 O.3       1 ACP        -0.5928
     21 C1'         0.6219    1.9765   -0.7844 C.3       1 ACP         0.3967
     22 N9          0.4237    1.4496   -2.1357 N.pl3     1 ACP        -0.6763
     23 C8          1.4026    0.9717   -2.9660 C.ar      1 ACP         0.5586
     24 N7          0.9183    0.5619   -4.1197 N.2       1 ACP        -0.5795
     25 C5         -0.4330    0.7845   -4.0331 C.ar      1 ACP        -0.2116
     26 C6         -1.4794    0.5615   -4.9225 C.ar      1 ACP         0.7185
     27 N6         -1.2378    0.0044   -6.1899 N.pl3     1 ACP        -0.9442
     28 N1         -2.7406    0.8885   -4.5512 N.ar      1 ACP        -0.8040
     29 C2         -2.9113    1.4216   -3.3172 C.ar      1 ACP         0.6560
     30 N3         -1.9824    1.6843   -2.3721 N.ar      1 ACP        -0.7058
     31 C4         -0.7613    1.3370   -2.8054 C.ar      1 ACP         0.5729
     32 HOG2        3.7670    1.1285    3.2550 H         1 ACP         0.4440
     33 HOG3        6.0494    0.0640    4.6379 H         1 ACP         0.4440
     34 H3B1        5.1609    4.4686    4.6914 H         1 ACP         0.1084
     35 H3B2        6.5553    3.8038    5.5376 H         1 ACP         0.1084
     36 H5'1        4.3181    1.3551   -0.6470 H         1 ACP         0.0281
     37 H5'2        4.6085    1.5740    1.0982 H         1 ACP         0.0281
     38 H4'         2.3751    2.7029    1.3156 H         1 ACP         0.1082
     39 H3'         2.4336   -0.1217   -0.0015 H         1 ACP         0.0650
     40 HO3'        1.7160   -0.6716    2.0397 H         1 ACP         0.4300
     41 H2'         0.0316    0.0155   -0.0339 H         1 ACP         0.0785
     42 HO2'       -0.1608    0.7921    2.1351 H         1 ACP         0.4275
     43 H1'        -0.1474    2.7798   -0.6651 H         1 ACP         0.1009
     44 H8          2.4442    0.9470   -2.6763 H         1 ACP         0.1067
     45 HN61       -0.2955   -0.1901   -6.4713 H         1 ACP         0.4213
     46 HN62       -1.9987   -0.1045   -6.8334 H         1 ACP         0.4213
     47 H2         -3.9335    1.6716   -3.0534 H         1 ACP         0.0365
@<TRIPOS>BOND
     1    1    2 2
     2    1    3 1
     3    1    4 1
     4    1    8 1
     5    3   32 1
     6    4   33 1
     7    5    6 2
     8    5    7 1
     9    5    8 1
    10    5   12 1
    11    8   34 1
    12    8   35 1
    13    9   10 2
    14    9   11 1
    15    9   12 1
    16    9   13 1
    17   13   14 1
    18   14   15 1
    19   14   36 1
    20   14   37 1
    21   15   16 1
    22   15   17 1
    23   15   38 1
    24   16   21 1
    25   17   18 1
    26   17   19 1
    27   17   39 1
    28   18   40 1
    29   19   20 1
    30   19   21 1
    31   19   41 1
    32   20   42 1
    33   21   22 1
    34   21   43 1
    35   22   23 ar
    36   22   31 ar
    37   23   24 ar
    38   23   44 1
    39   24   25 ar
    40   25   26 ar
    41   25   31 ar
    42   26   27 1
    43   26   28 ar
    44   27   45 1
    45   27   46 1
    46   28   29 ar
    47   29   30 ar
    48   29   47 1
    49   30   31 ar
@<TRIPOS>SUBSTRUCTURE
     1 ACP         1 GROUP 0 A     ****
@<TRIPOS>MOLECULE
[[5-(6-aminopurin-9-yl)-3,4-dihydroxy-tetrahydrofuran-2-yl]methoxy-oxido-phosphoryl]oxy-(phosphonomethyl)phosphinate
   47    49     1     0     0
SMALL
USER_CHARGES

@<TRIPOS>ATOM
      1 PG          1.3079    6.2221    0.2979 P.3       1 ACP         1.6478
      2 O1G         2.0450    5.4891    1.3780 O.2       1 ACP        -0.9103
      3 O2G         1.8374    7.7166   -0.0126 O.3       1 ACP        -0.7989
      4 O3G        -0.2741    6.4257    0.5540 O.3       1 ACP        -0.7989
      5 PB          0.7053    3.7167   -1.6230 P.3       1 ACP         1.4947
      6 O1B         1.4723    2.7735   -0.7254 O.co2     1 ACP        -0.8554
      7 O2B         0.6290    3.5234   -3.1198 O.co2     1 ACP        -0.8554
      8 C3B         1.3629    5.4186   -1.3198 C.3       1 ACP        -0.6550
      9 PA         -1.9976    2.8864   -0.7224 P.3       1 ACP         1.5921
     10 O1A        -2.2799    2.1137   -1.9928 O.co2     1 ACP        -0.8561
     11 O2A        -3.1098    3.6160   -0.0008 O.co2     1 ACP        -0.8561
     12 O3A        -0.7917    3.9473   -1.0190 O.3       1 ACP        -0.8166
     13 O5'        -1.2434    1.9101    0.3513 O.3       1 ACP        -0.5737
     14 C5'        -0.8811    2.4285    1.6206 C.3       1 ACP         0.2197
     15 C4'        -0.1994    1.3333    2.4288 C.3       1 ACP         0.0944
     16 O4'        -1.1285    0.2356    2.5840 O.3       1 ACP        -0.4017
     17 C3'         1.0324    0.7610    1.7344 C.3       1 ACP         0.0859
     18 O3'         1.9175    0.2377    2.7247 O.3       1 ACP        -0.5941
     19 C2'         0.4468   -0.3802    0.9263 C.3       1 ACP         0.0924
     20 O2'         1.3993   -1.3703    0.5961 O.3       1 ACP        -0.5928
     21 C1'        -0.6159   -0.9100    1.8769 C.3       1 ACP         0.3967
     22 N9         -1.7127   -1.6108    1.2130 N.pl3     1 ACP        -0.6763
     23 C8         -2.8641   -1.0399    0.7392 C.ar      1 ACP         0.5586
     24 N7         -3.6659   -1.9257    0.1858 N.2       1 ACP        -0.5795
     25 C5         -3.0053   -3.1223    0.3069 C.ar      1 ACP        -0.2116
     26 C6         -3.3321   -4.4178   -0.0813 C.ar      1 ACP         0.7185
     27 N6         -4.5476   -4.6866   -0.7335 N.pl3     1 ACP        -0.9442
     28 N1         -2.4608   -5.4225    0.1773 N.ar      1 ACP        -0.8040
     29 C2         -1.3053   -5.1020    0.8081 C.ar      1 ACP         0.6560
     30 N3         -0.8788   -3.8921    1.2315 N.ar      1 ACP        -0.7058
     31 C4         -1.7870   -2.9477    0.9438 C.ar      1 ACP         0.5729
     32 HOG2        1.8225    8.3846    0.7055 H         1 ACP         0.4440
     33 HOG3       -0.5669    6.9236    1.3467 H         1 ACP         0.4440
     34 H3B1        0.8381    6.0677   -2.0298 H         1 ACP         0.1084
     35 H3B2        2.4143    5.3923   -1.6281 H         1 ACP         0.1084
     36 H5'1       -0.2035    3.2759    1.4765 H         1 ACP         0.0281
     37 H5'2       -1.7842    2.7761    2.1320 H         1 ACP         0.0281
     38 H4'         0.0403    1.7078    3.4343 H         1 ACP         0.1082
     39 H3'         1.5906    1.4859    1.1353 H         1 ACP         0.0650
     40 HO3'        2.6839   -0.1150    2.2479 H         1 ACP         0.4300
     41 H2'        -0.0017    0.0018    0.0005 H         1 ACP         0.0785
     42 HO2'        2.0953   -0.9375    0.0709 H         1 ACP         0.4275
     43 H1'        -0.1998   -1.6319    2.6178 H         1 ACP         0.1009
     44 H8         -3.0609    0.0200    0.8250 H         1 ACP         0.1067
     45 HN61       -5.2046   -3.9433   -0.8775 H         1 ACP         0.4213
     46 HN62       -4.7849   -5.6332   -0.9625 H         1 ACP         0.4213
     47 H2         -0.6318   -5.9307    0.9993 H         1 ACP         0.0365
@<TRIPOS>BOND
     1    1    2 2
     2    1    3 1
     3    1    4 1
     4    1    8 1
     5    3   32 1
     6    4   33 1
     7    5    6 2
     8    5    7 1
     9    5    8 1
    10    5   12 1
    11    8   34 1
    12    8   35 1
    13    9   10 2
    14    9   11 1
    15    9   12 1
    16    9   13 1
    17   13   14 1
    18   14   15 1
    19   14   36 1
    20   14   37 1
    21   15   16 1
    22   15   17 1
    23   15   38 1
    24   16   21 1
    25   17   18 1
    26   17   19 1
    27   17   39 1
    28   18   40 1
    29   19   20 1
    30   19   21 1
    31   19   41 1
    32   20   42 1
    33   21   22 1
    34   21   43 1
    35   22   23 ar
    36   22   31 ar
    37   23   24 ar
    38   23   44 1
    39   24   25 ar
    40   25   26 ar
    41   25   31 ar
    42   26   27 1
    43   26   28 ar
    44   27   45 1
    45   27   46 1
    46   28   29 ar
    47   29   30 ar
    48   29   47 1
    49   30   31 ar
@<TRIPOS>SUBSTRUCTURE
     1 ACP         1 GROUP 0 A     ****
@<TRIPOS>MOLECULE
[[5-(6-aminopurin-9-yl)-3,4-dihydroxy-tetrahydrofuran-2-yl]methoxy-oxido-phosphoryl]oxy-(phosphonomethyl)phosphinate
   47    49     1     0     0
SMALL
USER_CHARGES

@<TRIPOS>ATOM
      1 PG          2.2568    3.8247   -5.1973 P.3       1 ACP         1.6478
      2 O1G         1.7653    3.6596   -3.7907 O.2       1 ACP        -0.9103
      3 O2G         3.0850    2.5727   -5.7944 O.3       1 ACP        -0.7989
      4 O3G         3.2397    5.0826   -5.4446 O.3       1 ACP        -0.7989
      5 PB         -0.3965    2.8461   -6.7245 P.3       1 ACP         1.4947
      6 O1B         0.2640    1.5598   -7.1635 O.co2     1 ACP        -0.8554
      7 O2B        -1.4560    3.5336   -7.5543 O.co2     1 ACP        -0.8554
      8 C3B         0.9495    4.0773   -6.4191 C.3       1 ACP        -0.6550
      9 PA         -1.9759    1.6544   -4.5128 P.3       1 ACP         1.5921
     10 O1A        -1.3988    0.2579   -4.5978 O.co2     1 ACP        -0.8561
     11 O2A        -3.3526    1.9544   -5.0646 O.co2     1 ACP        -0.8561
     12 O3A        -0.9122    2.6959   -5.1848 O.3       1 ACP        -0.8166
     13 O5'        -1.9208    2.1717   -2.9622 O.3       1 ACP        -0.5737
     14 C5'        -0.7794    1.8744   -2.1748 C.3       1 ACP         0.2197
     15 C4'        -0.9699    2.4597   -0.7819 C.3       1 ACP         0.0944
     16 O4'        -2.1475    1.8640   -0.2014 O.3       1 ACP        -0.4017
     17 C3'         0.1697    2.1347    0.1695 C.3       1 ACP         0.0859
     18 O3'         0.1809    3.0982    1.2223 O.3       1 ACP        -0.5941
     19 C2'        -0.2543    0.7880    0.7187 C.3       1 ACP         0.0924
     20 O2'         0.3606    0.4944    1.9582 O.3       1 ACP        -0.5928
     21 C1'        -1.7682    0.9516    0.8548 C.3       1 ACP         0.3967
     22 N9         -2.5926   -0.2553    0.7436 N.pl3     1 ACP        -0.6763
     23 C8         -2.2879   -1.3752    0.0161 C.ar      1 ACP         0.5586
     24 N7         -3.2214   -2.2987    0.1123 N.2       1 ACP        -0.5795
     25 C5         -4.1723   -1.7531    0.9377 C.ar      1 ACP        -0.2116
     26 C6         -5.3870   -2.2342    1.4159 C.ar      1 ACP         0.7185
     27 N6         -5.8433   -3.5142    1.0574 N.pl3     1 ACP        -0.9442
     28 N1         -6.1289   -1.4512    2.2356 N.ar      1 ACP        -0.8040
     29 C2         -5.6370   -0.2275    2.5461 C.ar      1 ACP         0.6560
     30 N3         -4.4810    0.3469    2.1476 N.ar      1 ACP        -0.7058
     31 C4         -3.7996   -0.4810    1.3417 C.ar      1 ACP         0.5729
     32 HOG2        3.9093    2.2901   -5.3441 H         1 ACP         0.4440
     33 HOG3        4.0842    5.1305   -4.9481 H         1 ACP         0.4440
     34 H3B1        0.4397    5.0147   -6.1694 H         1 ACP         0.1084
     35 H3B2        1.4412    4.2291   -7.3867 H         1 ACP         0.1084
     36 H5'1       -0.6602    0.7877   -2.1203 H         1 ACP         0.0281
     37 H5'2        0.1041    2.3072   -2.6545 H         1 ACP         0.0281
     38 H4'        -1.1469    3.5409   -0.8522 H         1 ACP         0.1082
     39 H3'         1.1601    2.1310   -0.2934 H         1 ACP         0.0650
     40 HO3'        0.9173    2.8584    1.8048 H         1 ACP         0.4300
     41 H2'        -0.0024   -0.0091    0.0062 H         1 ACP         0.0785
     42 HO2'        0.0384   -0.3797    2.2403 H         1 ACP         0.4275
     43 H1'        -2.0584    1.4255    1.8301 H         1 ACP         0.1009
     44 H8         -1.3765   -1.4593   -0.5599 H         1 ACP         0.1067
     45 HN61       -5.3086   -4.0656    0.4134 H         1 ACP         0.4213
     46 HN62       -6.7426   -3.8233    1.3745 H         1 ACP         0.4213
     47 H2         -6.2570    0.3723    3.2040 H         1 ACP         0.0365
@<TRIPOS>BOND
     1    1    2 2
     2    1    3 1
     3    1    4 1
     4    1    8 1
     5    3   32 1
     6    4   33 1
     7    5    6 2
     8    5    7 1
     9    5    8 1
    10    5   12 1
    11    8   34 1
    12    8   35 1
    13    9   10 2
    14    9   11 1
    15    9   12 1
    16    9   13 1
    17   13   14 1
    18   14   15 1
    19   14   36 1
    20   14   37 1
    21   15   16 1
    22   15   17 1
    23   15   38 1
    24   16   21 1
    25   17   18 1
    26   17   19 1
    27   17   39 1
    28   18   40 1
    29   19   20 1
    30   19   21 1
    31   19   41 1
    32   20   42 1
    33   21   22 1
    34   21   43 1
    35   22   23 ar
    36   22   31 ar
    37   23   24 ar
    38   23   44 1
    39   24   25 ar
    40   25   26 ar
    41   25   31 ar
    42   26   27 1
    43   26   28 ar
    44   27   45 1
    45   27   46 1
    46   28   29 ar
    47   29   30 ar
    48   29   47 1
    49   30   31 ar
@<TRIPOS>SUBSTRUCTURE
     1 ACP         1 GROUP 0 A     ****
@<TRIPOS>MOLECULE
[[5-(6-aminopurin-9-yl)-3,4-dihydroxy-tetrahydrofuran-2-yl]methoxy-oxido-phosphoryl]oxy-(phosphonomethyl)phosphinate
   47    49     1     0     0
SMALL
USER_CHARGES

@<TRIPOS>ATOM
      1 PG         -1.5126   -0.1574   -7.8518 P.3       1 ACP         1.6478
      2 O1G        -1.1357    0.5077   -9.1413 O.2       1 ACP        -0.9103
      3 O2G        -0.2996   -0.8721   -7.0592 O.3       1 ACP        -0.7989
      4 O3G        -2.6255   -1.3221   -7.9723 O.3       1 ACP        -0.7989
      5 PB         -1.3004    2.4134   -5.9345 P.3       1 ACP         1.4947
      6 O1B        -2.2126    3.0894   -4.9372 O.co2     1 ACP        -0.8554
      7 O2B        -0.6953    3.1527   -7.1053 O.co2     1 ACP        -0.8554
      8 C3B        -2.2155    0.9574   -6.6154 C.3       1 ACP        -0.6550
      9 PA          1.0091    2.1062   -4.0966 P.3       1 ACP         1.5921
     10 O1A         1.7964    3.2163   -4.7587 O.co2     1 ACP        -0.8561
     11 O2A         1.7148    0.8952   -3.5261 O.co2     1 ACP        -0.8561
     12 O3A        -0.1376    1.5916   -5.1396 O.3       1 ACP        -0.8166
     13 O5'         0.0526    2.7390   -2.9307 O.3       1 ACP        -0.5737
     14 C5'        -0.7794    1.8744   -2.1748 C.3       1 ACP         0.2197
     15 C4'        -0.9699    2.4597   -0.7819 C.3       1 ACP         0.0944
     16 O4'        -2.1475    1.8640   -0.2014 O.3       1 ACP        -0.4017
     17 C3'         0.1697    2.1347    0.1695 C.3       1 ACP         0.0859
     18 O3'         0.1809    3.0982    1.2223 O.3       1 ACP        -0.5941
     19 C2'        -0.2543    0.7880    0.7187 C.3       1 ACP         0.0924
     20 O2'         0.3606    0.4944    1.9582 O.3       1 ACP        -0.5928
     21 C1'        -1.7682    0.9516    0.8548 C.3       1 ACP         0.3967
     22 N9         -2.5926   -0.2553    0.7436 N.pl3     1 ACP        -0.6763
     23 C8         -2.6465   -1.0979   -0.3350 C.ar      1 ACP         0.5586
     24 N7         -3.4765   -2.1012   -0.1400 N.2       1 ACP        -0.5795
     25 C5         -3.9826   -1.8994    1.1194 C.ar      1 ACP        -0.2116
     26 C6         -4.8981   -2.6116    1.8877 C.ar      1 ACP         0.7185
     27 N6         -5.4931   -3.7842    1.3916 N.pl3     1 ACP        -0.9442
     28 N1         -5.2111   -2.1602    3.1262 N.ar      1 ACP        -0.8040
     29 C2         -4.6051   -1.0248    3.5500 C.ar      1 ACP         0.6560
     30 N3         -3.7075   -0.2510    2.9016 N.ar      1 ACP        -0.7058
     31 C4         -3.4448   -0.7551    1.6866 C.ar      1 ACP         0.5729
     32 HOG2        0.1957   -1.5947   -7.5004 H         1 ACP         0.4440
     33 HOG3       -2.4364   -2.1037   -8.5338 H         1 ACP         0.4440
     34 H3B1       -3.1477    1.3615   -7.0260 H         1 ACP         0.1084
     35 H3B2       -2.4877    0.3435   -5.7493 H         1 ACP         0.1084
     36 H5'1       -1.7434    1.7764   -2.6839 H         1 ACP         0.0281
     37 H5'2       -0.3052    0.8897   -2.1149 H         1 ACP         0.0281
     38 H4'        -1.1469    3.5409   -0.8522 H         1 ACP         0.1082
     39 H3'         1.1601    2.1310   -0.2934 H         1 ACP         0.0650
     40 HO3'        0.9173    2.8584    1.8048 H         1 ACP         0.4300
     41 H2'        -0.0024   -0.0091    0.0062 H         1 ACP         0.0785
     42 HO2'        0.0384   -0.3797    2.2403 H         1 ACP         0.4275
     43 H1'        -2.0584    1.4255    1.8301 H         1 ACP         0.1009
     44 H8         -2.0609   -0.9301   -1.2286 H         1 ACP         0.1067
     45 HN61       -5.2894   -4.0827    0.4566 H         1 ACP         0.4213
     46 HN62       -6.1852   -4.2564    1.9420 H         1 ACP         0.4213
     47 H2         -4.8793   -0.6924    4.5457 H         1 ACP         0.0365
@<TRIPOS>BOND
     1    1    2 2
     2    1    3 1
     3    1    4 1
     4    1    8 1
     5    3   32 1
     6    4   33 1
     7    5    6 2
     8    5    7 1
     9    5    8 1
    10    5   12 1
    11    8   34 1
    12    8   35 1
    13    9   10 2
    14    9   11 1
    15    9   12 1
    16    9   13 1
    17   13   14 1
    18   14   15 1
    19   14   36 1
    20   14   37 1
    21   15   16 1
    22   15   17 1
    23   15   38 1
    24   16   21 1
    25   17   18 1
    26   17   19 1
    27   17   39 1
    28   18   40 1
    29   19   20 1
    30   19   21 1
    31   19   41 1
    32   20   42 1
    33   21   22 1
    34   21   43 1
    35   22   23 ar
    36   22   31 ar
    37   23   24 ar
    38   23   44 1
    39   24   25 ar
    40   25   26 ar
    41   25   31 ar
    42   26   27 1
    43   26   28 ar
    44   27   45 1
    45   27   46 1
    46   28   29 ar
    47   29   30 ar
    48   29   47 1
    49   30   31 ar
@<TRIPOS>SUBSTRUCTURE
     1 ACP         1 GROUP 0 A     ****
@<TRIPOS>MOLECULE
[[5-(6-aminopurin-9-yl)-3,4-dihydroxy-tetrahydrofuran-2-yl]methoxy-oxido-phosphoryl]oxy-(phosphonomethyl)phosphinate
   47    49     1     0     0
SMALL
USER_CHARGES

@<TRIPOS>ATOM
      1 PG          1.0756    6.6811   -1.9978 P.3       1 ACP         1.6478
      2 O1G         1.7585    5.6292   -1.1766 O.2       1 ACP        -0.9103
      3 O2G         0.7244    6.2566   -3.5165 O.3       1 ACP        -0.7989
      4 O3G         1.8922    8.0644   -2.1697 O.3       1 ACP        -0.7989
      5 PB         -1.9476    6.0763   -1.0898 P.3       1 ACP         1.4947
      6 O1B        -2.2944    5.4916   -2.4394 O.co2     1 ACP        -0.8554
      7 O2B        -2.9640    6.8027   -0.2396 O.co2     1 ACP        -0.8554
      8 C3B        -0.5179    7.2228   -1.3399 C.3       1 ACP        -0.6550
      9 PA         -0.5788    5.0300    1.3263 P.3       1 ACP         1.5921
     10 O1A        -1.7338    5.2023    2.2890 O.co2     1 ACP        -0.8561
     11 O2A         0.5830    5.9997    1.3349 O.co2     1 ACP        -0.8561
     12 O3A        -1.1769    4.9545   -0.1916 O.3       1 ACP        -0.8166
     13 O5'         0.0182    3.5132    1.4596 O.3       1 ACP        -0.5737
     14 C5'        -0.8811    2.4285    1.6206 C.3       1 ACP         0.2197
     15 C4'        -0.1994    1.3333    2.4288 C.3       1 ACP         0.0944
     16 O4'        -1.1285    0.2356    2.5840 O.3       1 ACP        -0.4017
     17 C3'         1.0324    0.7610    1.7344 C.3       1 ACP         0.0859
     18 O3'         1.9175    0.2377    2.7247 O.3       1 ACP        -0.5941
     19 C2'         0.4468   -0.3802    0.9263 C.3       1 ACP         0.0924
     20 O2'         1.3993   -1.3703    0.5961 O.3       1 ACP        -0.5928
     21 C1'        -0.6159   -0.9100    1.8769 C.3       1 ACP         0.3967
     22 N9         -1.7127   -1.6108    1.2130 N.pl3     1 ACP        -0.6763
     23 C8         -2.8641   -1.0399    0.7392 C.ar      1 ACP         0.5586
     24 N7         -3.6659   -1.9257    0.1858 N.2       1 ACP        -0.5795
     25 C5         -3.0053   -3.1223    0.3069 C.ar      1 ACP        -0.2116
     26 C6         -3.3321   -4.4178   -0.0813 C.ar      1 ACP         0.7185
     27 N6         -4.5476   -4.6866   -0.7335 N.pl3     1 ACP        -0.9442
     28 N1         -2.4608   -5.4225    0.1773 N.ar      1 ACP        -0.8040
     29 C2         -1.3053   -5.1020    0.8081 C.ar      1 ACP         0.6560
     30 N3         -0.8788   -3.8921    1.2315 N.ar      1 ACP        -0.7058
     31 C4         -1.7870   -2.9477    0.9438 C.ar      1 ACP         0.5729
     32 HOG2        1.4545    5.9991   -4.1187 H         1 ACP         0.4440
     33 HOG3        2.7761    8.0448   -2.5944 H         1 ACP         0.4440
     34 H3B1       -0.3337    7.6811   -0.3617 H         1 ACP         0.1084
     35 H3B2       -0.8835    8.0169   -2.0009 H         1 ACP         0.1084
     36 H5'1       -1.7769    2.7852    2.1386 H         1 ACP         0.0281
     37 H5'2       -1.1652    2.0544    0.6320 H         1 ACP         0.0281
     38 H4'         0.0403    1.7078    3.4343 H         1 ACP         0.1082
     39 H3'         1.5906    1.4859    1.1353 H         1 ACP         0.0650
     40 HO3'        2.6839   -0.1150    2.2479 H         1 ACP         0.4300
     41 H2'        -0.0017    0.0018    0.0005 H         1 ACP         0.0785
     42 HO2'        0.9369   -2.0558    0.0825 H         1 ACP         0.4275
     43 H1'        -0.1998   -1.6319    2.6178 H         1 ACP         0.1009
     44 H8         -3.0609    0.0200    0.8250 H         1 ACP         0.1067
     45 HN61       -5.2046   -3.9433   -0.8775 H         1 ACP         0.4213
     46 HN62       -4.7849   -5.6332   -0.9625 H         1 ACP         0.4213
     47 H2         -0.6318   -5.9307    0.9993 H         1 ACP         0.0365
@<TRIPOS>BOND
     1    1    2 2
     2    1    3 1
     3    1    4 1
     4    1    8 1
     5    3   32 1
     6    4   33 1
     7    5    6 2
     8    5    7 1
     9    5    8 1
    10    5   12 1
    11    8   34 1
    12    8   35 1
    13    9   10 2
    14    9   11 1
    15    9   12 1
    16    9   13 1
    17   13   14 1
    18   14   15 1
    19   14   36 1
    20   14   37 1
    21   15   16 1
    22   15   17 1
    23   15   38 1
    24   16   21 1
    25   17   18 1
    26   17   19 1
    27   17   39 1
    28   18   40 1
    29   19   20 1
    30   19   21 1
    31   19   41 1
    32   20   42 1
    33   21   22 1
    34   21   43 1
    35   22   23 ar
    36   22   31 ar
    37   23   24 ar
    38   23   44 1
    39   24   25 ar
    40   25   26 ar
    41   25   31 ar
    42   26   27 1
    43   26   28 ar
    44   27   45 1
    45   27   46 1
    46   28   29 ar
    47   29   30 ar
    48   29   47 1
    49   30   31 ar
@<TRIPOS>SUBSTRUCTURE
     1 ACP         1 GROUP 0 A     ****
@<TRIPOS>MOLECULE
[[5-(6-aminopurin-9-yl)-3,4-dihydroxy-tetrahydrofuran-2-yl]methoxy-oxido-phosphoryl]oxy-(phosphonomethyl)phosphinate
   47    49     1     0     0
SMALL
USER_CHARGES

@<TRIPOS>ATOM
      1 PG          1.6638    5.6126   -3.6628 P.3       1 ACP         1.6478
      2 O1G         2.2669    6.8070   -2.9868 O.2       1 ACP        -0.9103
      3 O2G         0.9170    4.5654   -2.6851 O.3       1 ACP        -0.7989
      4 O3G         2.6990    4.6881   -4.4894 O.3       1 ACP        -0.7989
      5 PB         -0.5019    4.7212   -5.8639 P.3       1 ACP         1.4947
      6 O1B         0.5334    3.9516   -6.6511 O.co2     1 ACP        -0.8554
      7 O2B        -1.6805    5.3972   -6.5253 O.co2     1 ACP        -0.8554
      8 C3B         0.3973    6.0102   -4.8889 C.3       1 ACP        -0.6550
      9 PA         -1.7483    2.3548   -4.5782 P.3       1 ACP         1.5921
     10 O1A        -0.7754    1.3199   -5.1006 O.co2     1 ACP        -0.8561
     11 O2A        -3.1254    2.4959   -5.1896 O.co2     1 ACP        -0.8561
     12 O3A        -1.0174    3.8151   -4.6099 O.3       1 ACP        -0.8166
     13 O5'        -1.9208    2.1717   -2.9622 O.3       1 ACP        -0.5737
     14 C5'        -0.7794    1.8744   -2.1748 C.3       1 ACP         0.2197
     15 C4'        -0.9699    2.4597   -0.7819 C.3       1 ACP         0.0944
     16 O4'        -2.1475    1.8640   -0.2014 O.3       1 ACP        -0.4017
     17 C3'         0.1697    2.1347    0.1695 C.3       1 ACP         0.0859
     18 O3'         0.1809    3.0982    1.2223 O.3       1 ACP        -0.5941
     19 C2'        -0.2543    0.7880    0.7187 C.3       1 ACP         0.0924
     20 O2'         0.3606    0.4944    1.9582 O.3       1 ACP        -0.5928
     21 C1'        -1.7682    0.9516    0.8548 C.3       1 ACP         0.3967
     22 N9         -2.5926   -0.2553    0.7436 N.pl3     1 ACP        -0.6763
     23 C8         -3.5599   -0.4866   -0.1983 C.ar      1 ACP         0.5586
     24 N7         -4.1294   -1.6639   -0.0461 N.2       1 ACP        -0.5795
     25 C5         -3.5041   -2.2191    1.0420 C.ar      1 ACP        -0.2116
     26 C6         -3.6604   -3.4390    1.6925 C.ar      1 ACP         0.7185
     27 N6         -4.6108   -4.3735    1.2468 N.pl3     1 ACP        -0.9442
     28 N1         -2.8820   -3.7179    2.7657 N.ar      1 ACP        -0.8040
     29 C2         -1.9837   -2.7784    3.1481 C.ar      1 ACP         0.6560
     30 N3         -1.7408   -1.5668    2.6022 N.ar      1 ACP        -0.7058
     31 C4         -2.5438   -1.3578    1.5483 C.ar      1 ACP         0.5729
     32 HOG2        1.4316    4.1318   -1.9714 H         1 ACP         0.4440
     33 HOG3        3.4482    4.2710   -4.0133 H         1 ACP         0.4440
     34 H3B1       -0.3811    6.5932   -4.3837 H         1 ACP         0.1084
     35 H3B2        0.8637    6.6725   -5.6272 H         1 ACP         0.1084
     36 H5'1       -0.6602    0.7877   -2.1203 H         1 ACP         0.0281
     37 H5'2        0.1041    2.3072   -2.6545 H         1 ACP         0.0281
     38 H4'        -1.1469    3.5409   -0.8522 H         1 ACP         0.1082
     39 H3'         1.1601    2.1310   -0.2934 H         1 ACP         0.0650
     40 HO3'        0.3098    3.9616    0.8017 H         1 ACP         0.4300
     41 H2'        -0.0024   -0.0091    0.0062 H         1 ACP         0.0785
     42 HO2'        0.0384   -0.3797    2.2403 H         1 ACP         0.4275
     43 H1'        -2.0584    1.4255    1.8301 H         1 ACP         0.1009
     44 H8         -3.8030    0.2355   -0.9657 H         1 ACP         0.1067
     45 HN61       -5.2130   -4.1372    0.4810 H         1 ACP         0.4213
     46 HN62       -4.7404   -5.2263    1.7576 H         1 ACP         0.4213
     47 H2         -1.3778   -3.0348    4.0107 H         1 ACP         0.0365
@<TRIPOS>BOND
     1    1    2 2
     2    1    3 1
     3    1    4 1
     4    1    8 1
     5    3   32 1
     6    4   33 1
     7    5    6 2
     8    5    7 1
     9    5    8 1
    10    5   12 1
    11    8   34 1
    12    8   35 1
    13    9   10 2
    14    9   11 1
    15    9   12 1
    16    9   13 1
    17   13   14 1
    18   14   15 1
    19   14   36 1
    20   14   37 1
    21   15   16 1
    22   15   17 1
    23   15   38 1
    24   16   21 1
    25   17   18 1
    26   17   19 1
    27   17   39 1
    28   18   40 1
    29   19   20 1
    30   19   21 1
    31   19   41 1
    32   20   42 1
    33   21   22 1
    34   21   43 1
    35   22   23 ar
    36   22   31 ar
    37   23   24 ar
    38   23   44 1
    39   24   25 ar
    40   25   26 ar
    41   25   31 ar
    42   26   27 1
    43   26   28 ar
    44   27   45 1
    45   27   46 1
    46   28   29 ar
    47   29   30 ar
    48   29   47 1
    49   30   31 ar
@<TRIPOS>SUBSTRUCTURE
     1 ACP         1 GROUP 0 A     ****
@<TRIPOS>MOLECULE
[[5-(6-aminopurin-9-yl)-3,4-dihydroxy-tetrahydrofuran-2-yl]methoxy-oxido-phosphoryl]oxy-(phosphonomethyl)phosphinate
   47    49     1     0     0
SMALL
USER_CHARGES

@<TRIPOS>ATOM
      1 PG         -3.1273    6.6252    5.3937 P.3       1 ACP         1.6478
      2 O1G        -3.7162    7.0241    4.0741 O.2       1 ACP        -0.9103
      3 O2G        -4.1951    6.2140    6.5343 O.3       1 ACP        -0.7989
      4 O3G        -2.2165    7.7483    6.1139 O.3       1 ACP        -0.7989
      5 PB         -0.4924    5.1526    4.2900 P.3       1 ACP         1.4947
      6 O1B         0.1458    3.7974    4.4899 O.co2     1 ACP        -0.8554
      7 O2B         0.2535    6.4417    4.5460 O.co2     1 ACP        -0.8554
      8 C3B        -2.0297    5.1917    5.3176 C.3       1 ACP        -0.6550
      9 PA         -0.5788    5.0300    1.3263 P.3       1 ACP         1.5921
     10 O1A         0.5648    6.0081    1.1646 O.co2     1 ACP        -0.8561
     11 O2A        -1.7187    5.0058    0.3313 O.co2     1 ACP        -0.8561
     12 O3A        -1.2048    5.2086    2.8242 O.3       1 ACP        -0.8166
     13 O5'         0.0182    3.5132    1.4596 O.3       1 ACP        -0.5737
     14 C5'        -0.8811    2.4285    1.6206 C.3       1 ACP         0.2197
     15 C4'        -0.1994    1.3333    2.4288 C.3       1 ACP         0.0944
     16 O4'        -1.1285    0.2356    2.5840 O.3       1 ACP        -0.4017
     17 C3'         1.0324    0.7610    1.7344 C.3       1 ACP         0.0859
     18 O3'         1.9175    0.2377    2.7247 O.3       1 ACP        -0.5941
     19 C2'         0.4468   -0.3802    0.9263 C.3       1 ACP         0.0924
     20 O2'         1.3993   -1.3703    0.5961 O.3       1 ACP        -0.5928
     21 C1'        -0.6159   -0.9100    1.8769 C.3       1 ACP         0.3967
     22 N9         -1.7127   -1.6108    1.2130 N.pl3     1 ACP        -0.6763
     23 C8         -2.5476   -1.0844    0.2632 C.ar      1 ACP         0.5586
     24 N7         -3.4391   -1.9591   -0.1536 N.2       1 ACP        -0.5795
     25 C5         -3.1701   -3.1016    0.5574 C.ar      1 ACP        -0.2116
     26 C6         -3.7593   -4.3620    0.5656 C.ar      1 ACP         0.7185
     27 N6         -4.8512   -4.6493   -0.2712 N.pl3     1 ACP        -0.9442
     28 N1         -3.2659   -5.3144    1.3932 N.ar      1 ACP        -0.8040
     29 C2         -2.2122   -4.9785    2.1759 C.ar      1 ACP         0.6560
     30 N3         -1.5595   -3.7985    2.2572 N.ar      1 ACP        -0.7058
     31 C4         -2.0986   -2.9054    1.4140 C.ar      1 ACP         0.5729
     32 HOG2       -4.8605    6.8745    6.8225 H         1 ACP         0.4440
     33 HOG3       -2.6213    8.6109    6.3466 H         1 ACP         0.4440
     34 H3B1       -1.7057    4.9682    6.3403 H         1 ACP         0.1084
     35 H3B2       -2.6356    4.3425    4.9818 H         1 ACP         0.1084
     36 H5'1       -1.7769    2.7852    2.1386 H         1 ACP         0.0281
     37 H5'2       -1.1652    2.0544    0.6320 H         1 ACP         0.0281
     38 H4'         0.0403    1.7078    3.4343 H         1 ACP         0.1082
     39 H3'         1.5906    1.4859    1.1353 H         1 ACP         0.0650
     40 HO3'        2.1521    0.9800    3.3017 H         1 ACP         0.4300
     41 H2'        -0.0017    0.0018    0.0005 H         1 ACP         0.0785
     42 HO2'        1.7495   -1.7243    1.4324 H         1 ACP         0.4275
     43 H1'        -0.1998   -1.6319    2.6178 H         1 ACP         0.1009
     44 H8         -2.4576   -0.0639   -0.0831 H         1 ACP         0.1067
     45 HN61       -5.2371   -3.9234   -0.8448 H         1 ACP         0.4213
     46 HN62       -5.2909   -5.5485   -0.2160 H         1 ACP         0.4213
     47 H2         -1.8433   -5.7650    2.8259 H         1 ACP         0.0365
@<TRIPOS>BOND
     1    1    2 2
     2    1    3 1
     3    1    4 1
     4    1    8 1
     5    3   32 1
     6    4   33 1
     7    5    6 2
     8    5    7 1
     9    5    8 1
    10    5   12 1
    11    8   34 1
    12    8   35 1
    13    9   10 2
    14    9   11 1
    15    9   12 1
    16    9   13 1
    17   13   14 1
    18   14   15 1
    19   14   36 1
    20   14   37 1
    21   15   16 1
    22   15   17 1
    23   15   38 1
    24   16   21 1
    25   17   18 1
    26   17   19 1
    27   17   39 1
    28   18   40 1
    29   19   20 1
    30   19   21 1
    31   19   41 1
    32   20   42 1
    33   21   22 1
    34   21   43 1
    35   22   23 ar
    36   22   31 ar
    37   23   24 ar
    38   23   44 1
    39   24   25 ar
    40   25   26 ar
    41   25   31 ar
    42   26   27 1
    43   26   28 ar
    44   27   45 1
    45   27   46 1
    46   28   29 ar
    47   29   30 ar
    48   29   47 1
    49   30   31 ar
@<TRIPOS>SUBSTRUCTURE
     1 ACP         1 GROUP 0 A     ****
@<TRIPOS>MOLECULE
[[5-(6-aminopurin-9-yl)-3,4-dihydroxy-tetrahydrofuran-2-yl]methoxy-oxido-phosphoryl]oxy-(phosphonomethyl)phosphinate
   47    49     1     0     0
SMALL
USER_CHARGES

@<TRIPOS>ATOM
      1 PG          6.3620    5.7115   -1.5332 P.3       1 ACP         1.6478
      2 O1G         7.3504    5.8788   -0.4186 O.2       1 ACP        -0.9103
      3 O2G         5.8578    7.0816   -2.2252 O.3       1 ACP        -0.7989
      4 O3G         4.9886    4.9601   -1.1344 O.3       1 ACP        -0.7989
      5 PB          7.5294    2.9851   -2.7717 P.3       1 ACP         1.4947
      6 O1B         8.6795    2.9676   -1.7916 O.co2     1 ACP        -0.8554
      7 O2B         7.6511    2.4229   -4.1691 O.co2     1 ACP        -0.8554
      8 C3B         6.9712    4.7413   -2.9307 C.3       1 ACP        -0.6550
      9 PA          5.8978    0.9307   -1.3850 P.3       1 ACP         1.5921
     10 O1A         6.7853    0.7713   -0.1696 O.co2     1 ACP        -0.8561
     11 O2A         5.9043   -0.1078   -2.4857 O.co2     1 ACP        -0.8561
     12 O3A         6.1915    2.3921   -2.0524 O.3       1 ACP        -0.8166
     13 O5'         4.3514    1.1573   -0.9028 O.3       1 ACP        -0.5737
     14 C5'         4.0922    1.9801    0.2227 C.3       1 ACP         0.2197
     15 C4'         2.5944    2.0310    0.4653 C.3       1 ACP         0.0944
     16 O4'         1.9327    2.5740   -0.6889 O.3       1 ACP        -0.4017
     17 C3'         1.9685    0.6634    0.6767 C.3       1 ACP         0.0859
     18 O3'         2.1425    0.1975    1.9977 O.3       1 ACP        -0.5941
     19 C2'         0.5176    0.9128    0.3099 C.3       1 ACP         0.0924
     20 O2'        -0.2103    1.4454    1.4152 O.3       1 ACP        -0.5928
     21 C1'         0.6219    1.9765   -0.7844 C.3       1 ACP         0.3967
     22 N9          0.4237    1.4496   -2.1357 N.pl3     1 ACP        -0.6763
     23 C8          1.4026    0.9717   -2.9660 C.ar      1 ACP         0.5586
     24 N7          0.9183    0.5619   -4.1197 N.2       1 ACP        -0.5795
     25 C5         -0.4330    0.7845   -4.0331 C.ar      1 ACP        -0.2116
     26 C6         -1.4794    0.5615   -4.9225 C.ar      1 ACP         0.7185
     27 N6         -1.2378    0.0044   -6.1899 N.pl3     1 ACP        -0.9442
     28 N1         -2.7406    0.8885   -4.5512 N.ar      1 ACP        -0.8040
     29 C2         -2.9113    1.4216   -3.3172 C.ar      1 ACP         0.6560
     30 N3         -1.9824    1.6843   -2.3721 N.ar      1 ACP        -0.7058
     31 C4         -0.7613    1.3370   -2.8054 C.ar      1 ACP         0.5729
     32 HOG2        5.4010    7.7521   -1.6740 H         1 ACP         0.4440
     33 HOG3        4.4175    5.3512   -0.4395 H         1 ACP         0.4440
     34 H3B1        6.1858    4.7323   -3.6948 H         1 ACP         0.1084
     35 H3B2        7.8217    5.2884   -3.3532 H         1 ACP         0.1084
     36 H5'1        4.6070    1.5616    1.0933 H         1 ACP         0.0281
     37 H5'2        4.4825    2.9835    0.0251 H         1 ACP         0.0281
     38 H4'         2.3751    2.7029    1.3156 H         1 ACP         0.1082
     39 H3'         2.4336   -0.1217   -0.0015 H         1 ACP         0.0650
     40 HO3'        1.7160   -0.6716    2.0397 H         1 ACP         0.4300
     41 H2'         0.0316    0.0155   -0.0339 H         1 ACP         0.0785
     42 HO2'       -0.1608    0.7921    2.1351 H         1 ACP         0.4275
     43 H1'        -0.1474    2.7798   -0.6651 H         1 ACP         0.1009
     44 H8          2.4442    0.9470   -2.6763 H         1 ACP         0.1067
     45 HN61       -0.2955   -0.1901   -6.4713 H         1 ACP         0.4213
     46 HN62       -1.9987   -0.1045   -6.8334 H         1 ACP         0.4213
     47 H2         -3.9335    1.6716   -3.0534 H         1 ACP         0.0365
@<TRIPOS>BOND
     1    1    2 2
     2    1    3 1
     3    1    4 1
     4    1    8 1
     5    3   32 1
     6    4   33 1
     7    5    6 2
     8    5    7 1
     9    5    8 1
    10    5   12 1
    11    8   34 1
    12    8   35 1
    13    9   10 2
    14    9   11 1
    15    9   12 1
    16    9   13 1
    17   13   14 1
    18   14   15 1
    19   14   36 1
    20   14   37 1
    21   15   16 1
    22   15   17 1
    23   15   38 1
    24   16   21 1
    25   17   18 1
    26   17   19 1
    27   17   39 1
    28   18   40 1
    29   19   20 1
    30   19   21 1
    31   19   41 1
    32   20   42 1
    33   21   22 1
    34   21   43 1
    35   22   23 ar
    36   22   31 ar
    37   23   24 ar
    38   23   44 1
    39   24   25 ar
    40   25   26 ar
    41   25   31 ar
    42   26   27 1
    43   26   28 ar
    44   27   45 1
    45   27   46 1
    46   28   29 ar
    47   29   30 ar
    48   29   47 1
    49   30   31 ar
@<TRIPOS>SUBSTRUCTURE
     1 ACP         1 GROUP 0 A     ****
@<TRIPOS>MOLECULE
[[5-(6-aminopurin-9-yl)-3,4-dihydroxy-tetrahydrofuran-2-yl]methoxy-oxido-phosphoryl]oxy-(phosphonomethyl)phosphinate
   47    49     1     0     0
SMALL
USER_CHARGES

@<TRIPOS>ATOM
      1 PG         -4.3652    4.1274   -0.5215 P.3       1 ACP         1.6478
      2 O1G        -3.2906    3.1035   -0.3111 O.2       1 ACP        -0.9103
      3 O2G        -5.7219    3.8934    0.3240 O.3       1 ACP        -0.7989
      4 O3G        -4.8876    4.2810   -2.0424 O.3       1 ACP        -0.7989
      5 PB         -3.3560    6.2948    1.6265 P.3       1 ACP         1.4947
      6 O1B        -4.5073    5.9905    2.5567 O.co2     1 ACP        -0.8554
      7 O2B        -2.7352    7.6694    1.5332 O.co2     1 ACP        -0.8554
      8 C3B        -3.8864    5.8127   -0.0785 C.3       1 ACP        -0.6550
      9 PA         -0.7382    5.0055    1.0868 P.3       1 ACP         1.5921
     10 O1A         0.1355    6.1779    1.4774 O.co2     1 ACP        -0.8561
     11 O2A        -0.9749    4.6722   -0.3702 O.co2     1 ACP        -0.8561
     12 O3A        -2.1880    5.1734    1.8200 O.3       1 ACP        -0.8166
     13 O5'        -0.2059    3.6558    1.8419 O.3       1 ACP        -0.5737
     14 C5'        -0.8811    2.4285    1.6206 C.3       1 ACP         0.2197
     15 C4'        -0.1994    1.3333    2.4288 C.3       1 ACP         0.0944
     16 O4'        -1.1285    0.2356    2.5840 O.3       1 ACP        -0.4017
     17 C3'         1.0324    0.7610    1.7344 C.3       1 ACP         0.0859
     18 O3'         1.9175    0.2377    2.7247 O.3       1 ACP        -0.5941
     19 C2'         0.4468   -0.3802    0.9263 C.3       1 ACP         0.0924
     20 O2'         1.3993   -1.3703    0.5961 O.3       1 ACP        -0.5928
     21 C1'        -0.6159   -0.9100    1.8769 C.3       1 ACP         0.3967
     22 N9         -1.7127   -1.6108    1.2130 N.pl3     1 ACP        -0.6763
     23 C8         -2.5476   -1.0844    0.2632 C.ar      1 ACP         0.5586
     24 N7         -3.4391   -1.9591   -0.1536 N.2       1 ACP        -0.5795
     25 C5         -3.1701   -3.1016    0.5574 C.ar      1 ACP        -0.2116
     26 C6         -3.7593   -4.3620    0.5656 C.ar      1 ACP         0.7185
     27 N6         -4.8512   -4.6493   -0.2712 N.pl3     1 ACP        -0.9442
     28 N1         -3.2659   -5.3144    1.3932 N.ar      1 ACP        -0.8040
     29 C2         -2.2122   -4.9785    2.1759 C.ar      1 ACP         0.6560
     30 N3         -1.5595   -3.7985    2.2572 N.ar      1 ACP        -0.7058
     31 C4         -2.0986   -2.9054    1.4140 C.ar      1 ACP         0.5729
     32 HOG2       -6.2290    3.0648    0.1887 H         1 ACP         0.4440
     33 HOG3       -5.2847    3.5034   -2.4892 H         1 ACP         0.4440
     34 H3B1       -3.0615    6.1064   -0.7374 H         1 ACP         0.1084
     35 H3B2       -4.7359    6.4609   -0.3220 H         1 ACP         0.1084
     36 H5'1       -1.9255    2.5383    1.9294 H         1 ACP         0.0281
     37 H5'2       -0.8472    2.1934    0.5521 H         1 ACP         0.0281
     38 H4'         0.0403    1.7078    3.4343 H         1 ACP         0.1082
     39 H3'         1.5906    1.4859    1.1353 H         1 ACP         0.0650
     40 HO3'        2.6839   -0.1150    2.2479 H         1 ACP         0.4300
     41 H2'        -0.0017    0.0018    0.0005 H         1 ACP         0.0785
     42 HO2'        2.0953   -0.9375    0.0709 H         1 ACP         0.4275
     43 H1'        -0.1998   -1.6319    2.6178 H         1 ACP         0.1009
     44 H8         -2.4576   -0.0639   -0.0831 H         1 ACP         0.1067
     45 HN61       -5.2371   -3.9234   -0.8448 H         1 ACP         0.4213
     46 HN62       -5.2909   -5.5485   -0.2160 H         1 ACP         0.4213
     47 H2         -1.8433   -5.7650    2.8259 H         1 ACP         0.0365
@<TRIPOS>BOND
     1    1    2 2
     2    1    3 1
     3    1    4 1
     4    1    8 1
     5    3   32 1
     6    4   33 1
     7    5    6 2
     8    5    7 1
     9    5    8 1
    10    5   12 1
    11    8   34 1
    12    8   35 1
    13    9   10 2
    14    9   11 1
    15    9   12 1
    16    9   13 1
    17   13   14 1
    18   14   15 1
    19   14   36 1
    20   14   37 1
    21   15   16 1
    22   15   17 1
    23   15   38 1
    24   16   21 1
    25   17   18 1
    26   17   19 1
    27   17   39 1
    28   18   40 1
    29   19   20 1
    30   19   21 1
    31   19   41 1
    32   20   42 1
    33   21   22 1
    34   21   43 1
    35   22   23 ar
    36   22   31 ar
    37   23   24 ar
    38   23   44 1
    39   24   25 ar
    40   25   26 ar
    41   25   31 ar
    42   26   27 1
    43   26   28 ar
    44   27   45 1
    45   27   46 1
    46   28   29 ar
    47   29   30 ar
    48   29   47 1
    49   30   31 ar
@<TRIPOS>SUBSTRUCTURE
     1 ACP         1 GROUP 0 A     ****
@<TRIPOS>MOLECULE
[[5-(6-aminopurin-9-yl)-3,4-dihydroxy-tetrahydrofuran-2-yl]methoxy-oxido-phosphoryl]oxy-(phosphonomethyl)phosphinate
   47    49     1     0     0
SMALL
USER_CHARGES

@<TRIPOS>ATOM
      1 PG         -6.4958    3.7998   -1.0952 P.3       1 ACP         1.6478
      2 O1G        -7.0863    3.5767   -2.4549 O.2       1 ACP        -0.9103
      3 O2G        -7.5616    4.0717    0.0882 O.3       1 ACP        -0.7989
      4 O3G        -5.4741    5.0458   -0.9794 O.3       1 ACP        -0.7989
      5 PB         -4.6898    2.4297    1.1832 P.3       1 ACP         1.4947
      6 O1B        -3.9859    1.1022    1.3441 O.co2     1 ACP        -0.8554
      7 O2B        -5.6949    2.9377    2.1908 O.co2     1 ACP        -0.8554
      8 C3B        -5.5246    2.4113   -0.4671 C.3       1 ACP        -0.6550
      9 PA         -2.5927    4.4187    1.8559 P.3       1 ACP         1.5921
     10 O1A        -3.4214    5.0525    2.9523 O.co2     1 ACP        -0.8561
     11 O2A        -1.6640    5.2600    1.0075 O.co2     1 ACP        -0.8561
     12 O3A        -3.5926    3.5929    0.8630 O.3       1 ACP        -0.8166
     13 O5'        -1.7337    3.1724    2.4754 O.3       1 ACP        -0.5737
     14 C5'        -0.8811    2.4285    1.6206 C.3       1 ACP         0.2197
     15 C4'        -0.1994    1.3333    2.4288 C.3       1 ACP         0.0944
     16 O4'        -1.1285    0.2356    2.5840 O.3       1 ACP        -0.4017
     17 C3'         1.0324    0.7610    1.7344 C.3       1 ACP         0.0859
     18 O3'         1.9175    0.2377    2.7247 O.3       1 ACP        -0.5941
     19 C2'         0.4468   -0.3802    0.9263 C.3       1 ACP         0.0924
     20 O2'         1.3993   -1.3703    0.5961 O.3       1 ACP        -0.5928
     21 C1'        -0.6159   -0.9100    1.8769 C.3       1 ACP         0.3967
     22 N9         -1.7127   -1.6108    1.2130 N.pl3     1 ACP        -0.6763
     23 C8         -2.5476   -1.0844    0.2632 C.ar      1 ACP         0.5586
     24 N7         -3.4391   -1.9591   -0.1536 N.2       1 ACP        -0.5795
     25 C5         -3.1701   -3.1016    0.5574 C.ar      1 ACP        -0.2116
     26 C6         -3.7593   -4.3620    0.5656 C.ar      1 ACP         0.7185
     27 N6         -4.8512   -4.6493   -0.2712 N.pl3     1 ACP        -0.9442
     28 N1         -3.2659   -5.3144    1.3932 N.ar      1 ACP        -0.8040
     29 C2         -2.2122   -4.9785    2.1759 C.ar      1 ACP         0.6560
     30 N3         -1.5595   -3.7985    2.2572 N.ar      1 ACP        -0.7058
     31 C4         -2.0986   -2.9054    1.4140 C.ar      1 ACP         0.5729
     32 HOG2       -8.1608    4.8452    0.0193 H         1 ACP         0.4440
     33 HOG3       -5.7985    5.9473   -1.1890 H         1 ACP         0.4440
     34 H3B1       -6.1753    1.5296   -0.4578 H         1 ACP         0.1084
     35 H3B2       -4.7336    2.2168   -1.2003 H         1 ACP         0.1084
     36 H5'1       -1.4802    1.9929    0.8148 H         1 ACP         0.0281
     37 H5'2       -0.1370    3.1043    1.1873 H         1 ACP         0.0281
     38 H4'         0.0403    1.7078    3.4343 H         1 ACP         0.1082
     39 H3'         1.5906    1.4859    1.1353 H         1 ACP         0.0650
     40 HO3'        2.1521    0.9800    3.3017 H         1 ACP         0.4300
     41 H2'        -0.0017    0.0018    0.0005 H         1 ACP         0.0785
     42 HO2'        0.9369   -2.0558    0.0825 H         1 ACP         0.4275
     43 H1'        -0.1998   -1.6319    2.6178 H         1 ACP         0.1009
     44 H8         -2.4576   -0.0639   -0.0831 H         1 ACP         0.1067
     45 HN61       -5.2312   -5.5768   -0.2846 H         1 ACP         0.4213
     46 HN62       -5.1770   -3.9517   -0.9131 H         1 ACP         0.4213
     47 H2         -1.8433   -5.7650    2.8259 H         1 ACP         0.0365
@<TRIPOS>BOND
     1    1    2 2
     2    1    3 1
     3    1    4 1
     4    1    8 1
     5    3   32 1
     6    4   33 1
     7    5    6 2
     8    5    7 1
     9    5    8 1
    10    5   12 1
    11    8   34 1
    12    8   35 1
    13    9   10 2
    14    9   11 1
    15    9   12 1
    16    9   13 1
    17   13   14 1
    18   14   15 1
    19   14   36 1
    20   14   37 1
    21   15   16 1
    22   15   17 1
    23   15   38 1
    24   16   21 1
    25   17   18 1
    26   17   19 1
    27   17   39 1
    28   18   40 1
    29   19   20 1
    30   19   21 1
    31   19   41 1
    32   20   42 1
    33   21   22 1
    34   21   43 1
    35   22   23 ar
    36   22   31 ar
    37   23   24 ar
    38   23   44 1
    39   24   25 ar
    40   25   26 ar
    41   25   31 ar
    42   26   27 1
    43   26   28 ar
    44   27   45 1
    45   27   46 1
    46   28   29 ar
    47   29   30 ar
    48   29   47 1
    49   30   31 ar
@<TRIPOS>SUBSTRUCTURE
     1 ACP         1 GROUP 0 A     ****
@<TRIPOS>MOLECULE
[[5-(6-aminopurin-9-yl)-3,4-dihydroxy-tetrahydrofuran-2-yl]methoxy-oxido-phosphoryl]oxy-(phosphonomethyl)phosphinate
   47    49     1     0     0
SMALL
USER_CHARGES

@<TRIPOS>ATOM
      1 PG         -4.7370    5.4741    5.1915 P.3       1 ACP         1.6478
      2 O1G        -5.0719    5.9984    3.8275 O.2       1 ACP        -0.9103
      3 O2G        -5.9349    4.7007    5.9511 O.3       1 ACP        -0.7989
      4 O3G        -4.2627    6.5853    6.2638 O.3       1 ACP        -0.7989
      5 PB         -1.6773    4.6660    4.6301 P.3       1 ACP         1.4947
      6 O1B        -0.8438    3.4186    4.8111 O.co2     1 ACP        -0.8554
      7 O2B        -1.2858    5.9934    5.2370 O.co2     1 ACP        -0.8554
      8 C3B        -3.3865    4.2737    5.2179 C.3       1 ACP        -0.6550
      9 PA         -1.0481    5.0552    1.7563 P.3       1 ACP         1.5921
     10 O1A        -0.1188    6.2188    2.0266 O.co2     1 ACP        -0.8561
     11 O2A        -1.8976    5.0221    0.5044 O.co2     1 ACP        -0.8561
     12 O3A        -2.0269    4.8631    3.0495 O.3       1 ACP        -0.8166
     13 O5'        -0.2059    3.6558    1.8419 O.3       1 ACP        -0.5737
     14 C5'        -0.8811    2.4285    1.6206 C.3       1 ACP         0.2197
     15 C4'        -0.1994    1.3333    2.4288 C.3       1 ACP         0.0944
     16 O4'        -1.1285    0.2356    2.5840 O.3       1 ACP        -0.4017
     17 C3'         1.0324    0.7610    1.7344 C.3       1 ACP         0.0859
     18 O3'         1.9175    0.2377    2.7247 O.3       1 ACP        -0.5941
     19 C2'         0.4468   -0.3802    0.9263 C.3       1 ACP         0.0924
     20 O2'         1.3993   -1.3703    0.5961 O.3       1 ACP        -0.5928
     21 C1'        -0.6159   -0.9100    1.8769 C.3       1 ACP         0.3967
     22 N9         -1.7127   -1.6108    1.2130 N.pl3     1 ACP        -0.6763
     23 C8         -2.0877   -2.9101    1.4304 C.ar      1 ACP         0.5586
     24 N7         -3.1152   -3.2613    0.6857 N.2       1 ACP        -0.5795
     25 C5         -3.4186   -2.1409   -0.0462 C.ar      1 ACP        -0.2116
     26 C6         -4.3953   -1.8809   -1.0023 C.ar      1 ACP         0.7185
     27 N6         -5.3118   -2.8767   -1.3812 N.pl3     1 ACP        -0.9442
     28 N1         -4.4538   -0.6507   -1.5667 N.ar      1 ACP        -0.8040
     29 C2         -3.5442    0.2679   -1.1609 C.ar      1 ACP         0.6560
     30 N3         -2.5561    0.1361   -0.2491 N.ar      1 ACP        -0.7058
     31 C4         -2.5568   -1.1019    0.2674 C.ar      1 ACP         0.5729
     32 HOG2       -6.7677    5.1834    6.1395 H         1 ACP         0.4440
     33 HOG3       -4.8753    7.3162    6.4932 H         1 ACP         0.4440
     34 H3B1       -3.2702    3.9291    6.2517 H         1 ACP         0.1084
     35 H3B2       -3.7146    3.4101    4.6284 H         1 ACP         0.1084
     36 H5'1       -1.9255    2.5383    1.9294 H         1 ACP         0.0281
     37 H5'2       -0.8472    2.1934    0.5521 H         1 ACP         0.0281
     38 H4'         0.0403    1.7078    3.4343 H         1 ACP         0.1082
     39 H3'         1.5906    1.4859    1.1353 H         1 ACP         0.0650
     40 HO3'        2.1521    0.9800    3.3017 H         1 ACP         0.4300
     41 H2'        -0.0017    0.0018    0.0005 H         1 ACP         0.0785
     42 HO2'        2.0953   -0.9375    0.0709 H         1 ACP         0.4275
     43 H1'        -0.1998   -1.6319    2.6178 H         1 ACP         0.1009
     44 H8         -1.5778   -3.5473    2.1399 H         1 ACP         0.1067
     45 HN61       -5.2294   -3.7965   -0.9914 H         1 ACP         0.4213
     46 HN62       -5.9774   -2.6837   -2.1055 H         1 ACP         0.4213
     47 H2         -3.6201    1.2414   -1.6336 H         1 ACP         0.0365
@<TRIPOS>BOND
     1    1    2 2
     2    1    3 1
     3    1    4 1
     4    1    8 1
     5    3   32 1
     6    4   33 1
     7    5    6 2
     8    5    7 1
     9    5    8 1
    10    5   12 1
    11    8   34 1
    12    8   35 1
    13    9   10 2
    14    9   11 1
    15    9   12 1
    16    9   13 1
    17   13   14 1
    18   14   15 1
    19   14   36 1
    20   14   37 1
    21   15   16 1
    22   15   17 1
    23   15   38 1
    24   16   21 1
    25   17   18 1
    26   17   19 1
    27   17   39 1
    28   18   40 1
    29   19   20 1
    30   19   21 1
    31   19   41 1
    32   20   42 1
    33   21   22 1
    34   21   43 1
    35   22   23 ar
    36   22   31 ar
    37   23   24 ar
    38   23   44 1
    39   24   25 ar
    40   25   26 ar
    41   25   31 ar
    42   26   27 1
    43   26   28 ar
    44   27   45 1
    45   27   46 1
    46   28   29 ar
    47   29   30 ar
    48   29   47 1
    49   30   31 ar
@<TRIPOS>SUBSTRUCTURE
     1 ACP         1 GROUP 0 A     ****
@<TRIPOS>MOLECULE
[[5-(6-aminopurin-9-yl)-3,4-dihydroxy-tetrahydrofuran-2-yl]methoxy-oxido-phosphoryl]oxy-(phosphonomethyl)phosphinate
   47    49     1     0     0
SMALL
USER_CHARGES

@<TRIPOS>ATOM
      1 PG         -1.6204    1.8896   -2.9968 P.3       1 ACP         1.6478
      2 O1G        -3.1075    2.0779   -2.9779 O.2       1 ACP        -0.9103
      3 O2G        -1.0689    0.8292   -4.0839 O.3       1 ACP        -0.7989
      4 O3G        -0.9684    1.3832   -1.6082 O.3       1 ACP        -0.7989
      5 PB         -0.7695    4.9159   -2.3280 P.3       1 ACP         1.4947
      6 O1B        -2.2079    5.3792   -2.3302 O.co2     1 ACP        -0.8554
      7 O2B         0.3687    5.8149   -2.7520 O.co2     1 ACP        -0.8554
      8 C3B        -0.6835    3.3894   -3.3687 C.3       1 ACP        -0.6550
      9 PA         -0.4662    4.8323    0.6228 P.3       1 ACP         1.5921
     10 O1A        -1.9048    5.1484    0.9710 O.co2     1 ACP        -0.8561
     11 O2A         0.6070    5.8922    0.7447 O.co2     1 ACP        -0.8561
     12 O3A        -0.4219    4.2246   -0.8925 O.3       1 ACP        -0.8166
     13 O5'         0.0182    3.5132    1.4596 O.3       1 ACP        -0.5737
     14 C5'        -0.8811    2.4285    1.6206 C.3       1 ACP         0.2197
     15 C4'        -0.1994    1.3333    2.4288 C.3       1 ACP         0.0944
     16 O4'        -1.1285    0.2356    2.5840 O.3       1 ACP        -0.4017
     17 C3'         1.0324    0.7610    1.7344 C.3       1 ACP         0.0859
     18 O3'         1.9175    0.2377    2.7247 O.3       1 ACP        -0.5941
     19 C2'         0.4468   -0.3802    0.9263 C.3       1 ACP         0.0924
     20 O2'         1.3993   -1.3703    0.5961 O.3       1 ACP        -0.5928
     21 C1'        -0.6159   -0.9100    1.8769 C.3       1 ACP         0.3967
     22 N9         -1.7127   -1.6108    1.2130 N.pl3     1 ACP        -0.6763
     23 C8         -2.8641   -1.0399    0.7392 C.ar      1 ACP         0.5586
     24 N7         -3.6659   -1.9257    0.1858 N.2       1 ACP        -0.5795
     25 C5         -3.0053   -3.1223    0.3069 C.ar      1 ACP        -0.2116
     26 C6         -3.3321   -4.4178   -0.0813 C.ar      1 ACP         0.7185
     27 N6         -4.5476   -4.6866   -0.7335 N.pl3     1 ACP        -0.9442
     28 N1         -2.4608   -5.4225    0.1773 N.ar      1 ACP        -0.8040
     29 C2         -1.3053   -5.1020    0.8081 C.ar      1 ACP         0.6560
     30 N3         -0.8788   -3.8921    1.2315 N.ar      1 ACP        -0.7058
     31 C4         -1.7870   -2.9477    0.9438 C.ar      1 ACP         0.5729
     32 HOG2       -1.3712   -0.1026   -4.0344 H         1 ACP         0.4440
     33 HOG3       -1.2576    0.5245   -1.2328 H         1 ACP         0.4440
     34 H3B1        0.3773    3.1168   -3.4040 H         1 ACP         0.1084
     35 H3B2       -0.9670    3.7009   -4.3805 H         1 ACP         0.1084
     36 H5'1       -1.7769    2.7852    2.1386 H         1 ACP         0.0281
     37 H5'2       -1.1652    2.0544    0.6320 H         1 ACP         0.0281
     38 H4'         0.0403    1.7078    3.4343 H         1 ACP         0.1082
     39 H3'         1.5906    1.4859    1.1353 H         1 ACP         0.0650
     40 HO3'        2.1521    0.9800    3.3017 H         1 ACP         0.4300
     41 H2'        -0.0017    0.0018    0.0005 H         1 ACP         0.0785
     42 HO2'        2.0953   -0.9375    0.0709 H         1 ACP         0.4275
     43 H1'        -0.1998   -1.6319    2.6178 H         1 ACP         0.1009
     44 H8         -3.0609    0.0200    0.8250 H         1 ACP         0.1067
     45 HN61       -5.2046   -3.9433   -0.8775 H         1 ACP         0.4213
     46 HN62       -4.7849   -5.6332   -0.9625 H         1 ACP         0.4213
     47 H2         -0.6318   -5.9307    0.9993 H         1 ACP         0.0365
@<TRIPOS>BOND
     1    1    2 2
     2    1    3 1
     3    1    4 1
     4    1    8 1
     5    3   32 1
     6    4   33 1
     7    5    6 2
     8    5    7 1
     9    5    8 1
    10    5   12 1
    11    8   34 1
    12    8   35 1
    13    9   10 2
    14    9   11 1
    15    9   12 1
    16    9   13 1
    17   13   14 1
    18   14   15 1
    19   14   36 1
    20   14   37 1
    21   15   16 1
    22   15   17 1
    23   15   38 1
    24   16   21 1
    25   17   18 1
    26   17   19 1
    27   17   39 1
    28   18   40 1
    29   19   20 1
    30   19   21 1
    31   19   41 1
    32   20   42 1
    33   21   22 1
    34   21   43 1
    35   22   23 ar
    36   22   31 ar
    37   23   24 ar
    38   23   44 1
    39   24   25 ar
    40   25   26 ar
    41   25   31 ar
    42   26   27 1
    43   26   28 ar
    44   27   45 1
    45   27   46 1
    46   28   29 ar
    47   29   30 ar
    48   29   47 1
    49   30   31 ar
@<TRIPOS>SUBSTRUCTURE
     1 ACP         1 GROUP 0 A     ****
@<TRIPOS>MOLECULE
[[5-(6-aminopurin-9-yl)-3,4-dihydroxy-tetrahydrofuran-2-yl]methoxy-oxido-phosphoryl]oxy-(phosphonomethyl)phosphinate
   47    49     1     0     0
SMALL
USER_CHARGES

@<TRIPOS>ATOM
      1 PG          0.2778    6.2439   -6.5440 P.3       1 ACP         1.6478
      2 O1G         0.7063    4.8955   -7.0395 O.2       1 ACP        -0.9103
      3 O2G        -1.0266    6.8663   -7.2660 O.3       1 ACP        -0.7989
      4 O3G         1.3820    7.4152   -6.6800 O.3       1 ACP        -0.7989
      5 PB         -1.5157    5.2678   -4.0619 P.3       1 ACP         1.4947
      6 O1B        -2.7963    5.6594   -4.7620 O.co2     1 ACP        -0.8554
      7 O2B        -1.3669    5.3264   -2.5592 O.co2     1 ACP        -0.8554
      8 C3B        -0.1575    6.2901   -4.7907 C.3       1 ACP        -0.6550
      9 PA         -1.7483    2.3548   -4.5782 P.3       1 ACP         1.5921
     10 O1A        -0.7754    1.3199   -5.1006 O.co2     1 ACP        -0.8561
     11 O2A        -3.1254    2.4959   -5.1896 O.co2     1 ACP        -0.8561
     12 O3A        -1.0174    3.8151   -4.6099 O.3       1 ACP        -0.8166
     13 O5'        -1.9208    2.1717   -2.9622 O.3       1 ACP        -0.5737
     14 C5'        -0.7794    1.8744   -2.1748 C.3       1 ACP         0.2197
     15 C4'        -0.9699    2.4597   -0.7819 C.3       1 ACP         0.0944
     16 O4'        -2.1475    1.8640   -0.2014 O.3       1 ACP        -0.4017
     17 C3'         0.1697    2.1347    0.1695 C.3       1 ACP         0.0859
     18 O3'         0.1809    3.0982    1.2223 O.3       1 ACP        -0.5941
     19 C2'        -0.2543    0.7880    0.7187 C.3       1 ACP         0.0924
     20 O2'         0.3606    0.4944    1.9582 O.3       1 ACP        -0.5928
     21 C1'        -1.7682    0.9516    0.8548 C.3       1 ACP         0.3967
     22 N9         -2.5926   -0.2553    0.7436 N.pl3     1 ACP        -0.6763
     23 C8         -2.2879   -1.3752    0.0161 C.ar      1 ACP         0.5586
     24 N7         -3.2214   -2.2987    0.1123 N.2       1 ACP        -0.5795
     25 C5         -4.1723   -1.7531    0.9377 C.ar      1 ACP        -0.2116
     26 C6         -5.3870   -2.2342    1.4159 C.ar      1 ACP         0.7185
     27 N6         -5.8433   -3.5142    1.0574 N.pl3     1 ACP        -0.9442
     28 N1         -6.1289   -1.4512    2.2356 N.ar      1 ACP        -0.8040
     29 C2         -5.6370   -0.2275    2.5461 C.ar      1 ACP         0.6560
     30 N3         -4.4810    0.3469    2.1476 N.ar      1 ACP        -0.7058
     31 C4         -3.7996   -0.4810    1.3417 C.ar      1 ACP         0.5729
     32 HOG2       -1.0035    7.0254   -8.2336 H         1 ACP         0.4440
     33 HOG3        1.7223    7.6463   -7.5704 H         1 ACP         0.4440
     34 H3B1        0.7420    6.0345   -4.2194 H         1 ACP         0.1084
     35 H3B2       -0.4040    7.3305   -4.5497 H         1 ACP         0.1084
     36 H5'1       -0.6602    0.7877   -2.1203 H         1 ACP         0.0281
     37 H5'2        0.1041    2.3072   -2.6545 H         1 ACP         0.0281
     38 H4'        -1.1469    3.5409   -0.8522 H         1 ACP         0.1082
     39 H3'         1.1601    2.1310   -0.2934 H         1 ACP         0.0650
     40 HO3'        0.9173    2.8584    1.8048 H         1 ACP         0.4300
     41 H2'        -0.0024   -0.0091    0.0062 H         1 ACP         0.0785
     42 HO2'        0.0384   -0.3797    2.2403 H         1 ACP         0.4275
     43 H1'        -2.0584    1.4255    1.8301 H         1 ACP         0.1009
     44 H8         -1.3765   -1.4593   -0.5599 H         1 ACP         0.1067
     45 HN61       -5.3086   -4.0656    0.4134 H         1 ACP         0.4213
     46 HN62       -6.7426   -3.8233    1.3745 H         1 ACP         0.4213
     47 H2         -6.2570    0.3723    3.2040 H         1 ACP         0.0365
@<TRIPOS>BOND
     1    1    2 2
     2    1    3 1
     3    1    4 1
     4    1    8 1
     5    3   32 1
     6    4   33 1
     7    5    6 2
     8    5    7 1
     9    5    8 1
    10    5   12 1
    11    8   34 1
    12    8   35 1
    13    9   10 2
    14    9   11 1
    15    9   12 1
    16    9   13 1
    17   13   14 1
    18   14   15 1
    19   14   36 1
    20   14   37 1
    21   15   16 1
    22   15   17 1
    23   15   38 1
    24   16   21 1
    25   17   18 1
    26   17   19 1
    27   17   39 1
    28   18   40 1
    29   19   20 1
    30   19   21 1
    31   19   41 1
    32   20   42 1
    33   21   22 1
    34   21   43 1
    35   22   23 ar
    36   22   31 ar
    37   23   24 ar
    38   23   44 1
    39   24   25 ar
    40   25   26 ar
    41   25   31 ar
    42   26   27 1
    43   26   28 ar
    44   27   45 1
    45   27   46 1
    46   28   29 ar
    47   29   30 ar
    48   29   47 1
    49   30   31 ar
@<TRIPOS>SUBSTRUCTURE
     1 ACP         1 GROUP 0 A     ****
@<TRIPOS>MOLECULE
[[5-(6-aminopurin-9-yl)-3,4-dihydroxy-tetrahydrofuran-2-yl]methoxy-oxido-phosphoryl]oxy-(phosphonomethyl)phosphinate
   47    49     1     0     0
SMALL
USER_CHARGES

@<TRIPOS>ATOM
      1 PG          7.8070   -0.1392   -0.9275 P.3       1 ACP         1.6478
      2 O1G         6.6082    0.0867   -0.0562 O.2       1 ACP        -0.9103
      3 O2G         7.5550   -1.0630   -2.2288 O.3       1 ACP        -0.7989
      4 O3G         9.0682   -0.8413   -0.2023 O.3       1 ACP        -0.7989
      5 PB          7.5731    2.5172   -2.7216 P.3       1 ACP         1.4947
      6 O1B         7.1494    1.7255   -3.9370 O.co2     1 ACP        -0.8554
      7 O2B         8.3699    3.7967   -2.8292 O.co2     1 ACP        -0.8554
      8 C3B         8.5190    1.3695   -1.6220 C.3       1 ACP        -0.6550
      9 PA          6.1592    3.5244   -0.3148 P.3       1 ACP         1.5921
     10 O1A         6.4205    4.9975   -0.5432 O.co2     1 ACP        -0.8561
     11 O2A         6.9491    2.7529    0.7199 O.co2     1 ACP        -0.8561
     12 O3A         6.2869    2.7480   -1.7461 O.3       1 ACP        -0.8166
     13 O5'         4.5669    3.2941   -0.0211 O.3       1 ACP        -0.5737
     14 C5'         4.0922    1.9801    0.2227 C.3       1 ACP         0.2197
     15 C4'         2.5944    2.0310    0.4653 C.3       1 ACP         0.0944
     16 O4'         1.9327    2.5740   -0.6889 O.3       1 ACP        -0.4017
     17 C3'         1.9685    0.6634    0.6767 C.3       1 ACP         0.0859
     18 O3'         2.1425    0.1975    1.9977 O.3       1 ACP        -0.5941
     19 C2'         0.5176    0.9128    0.3099 C.3       1 ACP         0.0924
     20 O2'        -0.2103    1.4454    1.4152 O.3       1 ACP        -0.5928
     21 C1'         0.6219    1.9765   -0.7844 C.3       1 ACP         0.3967
     22 N9          0.4237    1.4496   -2.1357 N.pl3     1 ACP        -0.6763
     23 C8         -0.7736    1.3475   -2.7932 C.ar      1 ACP         0.5586
     24 N7         -0.6356    0.8373   -3.9991 N.2       1 ACP        -0.5795
     25 C5          0.7095    0.5981   -4.1281 C.ar      1 ACP        -0.2116
     26 C6          1.4733    0.0704   -5.1643 C.ar      1 ACP         0.7185
     27 N6          0.8693   -0.3355   -6.3666 N.pl3     1 ACP        -0.9442
     28 N1          2.8130   -0.0482   -5.0009 N.ar      1 ACP        -0.8040
     29 C2          3.3380    0.3602   -3.8204 C.ar      1 ACP         0.6560
     30 N3          2.7052    0.8841   -2.7480 N.ar      1 ACP        -0.7058
     31 C4          1.3867    0.9726   -2.9785 C.ar      1 ACP         0.5729
     32 HOG2        7.2427   -1.9844   -2.1040 H         1 ACP         0.4440
     33 HOG3        8.9550   -1.7334    0.1894 H         1 ACP         0.4440
     34 H3B1        8.8697    1.9853   -0.7861 H         1 ACP         0.1084
     35 H3B2        9.4056    1.0713   -2.1930 H         1 ACP         0.1084
     36 H5'1        4.3181    1.3551   -0.6470 H         1 ACP         0.0281
     37 H5'2        4.6085    1.5740    1.0982 H         1 ACP         0.0281
     38 H4'         2.3751    2.7029    1.3156 H         1 ACP         0.1082
     39 H3'         2.4336   -0.1217   -0.0015 H         1 ACP         0.0650
     40 HO3'        1.7160   -0.6716    2.0397 H         1 ACP         0.4300
     41 H2'         0.0316    0.0155   -0.0339 H         1 ACP         0.0785
     42 HO2'       -0.1608    0.7921    2.1351 H         1 ACP         0.4275
     43 H1'        -0.1474    2.7798   -0.6651 H         1 ACP         0.1009
     44 H8         -1.7070    1.6599   -2.3451 H         1 ACP         0.1067
     45 HN61       -0.1277   -0.2866   -6.4583 H         1 ACP         0.4213
     46 HN62        1.4308   -0.7566   -7.0823 H         1 ACP         0.4213
     47 H2          4.4130    0.2505   -3.7241 H         1 ACP         0.0365
@<TRIPOS>BOND
     1    1    2 2
     2    1    3 1
     3    1    4 1
     4    1    8 1
     5    3   32 1
     6    4   33 1
     7    5    6 2
     8    5    7 1
     9    5    8 1
    10    5   12 1
    11    8   34 1
    12    8   35 1
    13    9   10 2
    14    9   11 1
    15    9   12 1
    16    9   13 1
    17   13   14 1
    18   14   15 1
    19   14   36 1
    20   14   37 1
    21   15   16 1
    22   15   17 1
    23   15   38 1
    24   16   21 1
    25   17   18 1
    26   17   19 1
    27   17   39 1
    28   18   40 1
    29   19   20 1
    30   19   21 1
    31   19   41 1
    32   20   42 1
    33   21   22 1
    34   21   43 1
    35   22   23 ar
    36   22   31 ar
    37   23   24 ar
    38   23   44 1
    39   24   25 ar
    40   25   26 ar
    41   25   31 ar
    42   26   27 1
    43   26   28 ar
    44   27   45 1
    45   27   46 1
    46   28   29 ar
    47   29   30 ar
    48   29   47 1
    49   30   31 ar
@<TRIPOS>SUBSTRUCTURE
     1 ACP         1 GROUP 0 A     ****
@<TRIPOS>MOLECULE
[[5-(6-aminopurin-9-yl)-3,4-dihydroxy-tetrahydrofuran-2-yl]methoxy-oxido-phosphoryl]oxy-(phosphonomethyl)phosphinate
   47    49     1     0     0
SMALL
USER_CHARGES

@<TRIPOS>ATOM
      1 PG          7.4253    4.3466    4.9756 P.3       1 ACP         1.6478
      2 O1G         8.0130    5.7195    4.8440 O.2       1 ACP        -0.9103
      3 O2G         7.5221    3.6885    6.4479 O.3       1 ACP        -0.7989
      4 O3G         8.0715    3.2212    4.0136 O.3       1 ACP        -0.7989
      5 PB          4.9604    4.7100    2.9453 P.3       1 ACP         1.4947
      6 O1B         5.3042    6.1610    2.7005 O.co2     1 ACP        -0.8554
      7 O2B         3.5389    4.1989    2.9022 O.co2     1 ACP        -0.8554
      8 C3B         5.6615    4.2509    4.5941 C.3       1 ACP        -0.6550
      9 PA          6.0979    3.6802    0.4053 P.3       1 ACP         1.5921
     10 O1A         7.0171    2.5220    0.0825 O.co2     1 ACP        -0.8561
     11 O2A         6.3985    5.0701   -0.1121 O.co2     1 ACP        -0.8561
     12 O3A         5.9165    3.7610    2.0265 O.3       1 ACP        -0.8166
     13 O5'         4.5669    3.2941   -0.0211 O.3       1 ACP        -0.5737
     14 C5'         4.0922    1.9801    0.2227 C.3       1 ACP         0.2197
     15 C4'         2.5944    2.0310    0.4653 C.3       1 ACP         0.0944
     16 O4'         1.9327    2.5740   -0.6889 O.3       1 ACP        -0.4017
     17 C3'         1.9685    0.6634    0.6767 C.3       1 ACP         0.0859
     18 O3'         2.1425    0.1975    1.9977 O.3       1 ACP        -0.5941
     19 C2'         0.5176    0.9128    0.3099 C.3       1 ACP         0.0924
     20 O2'        -0.2103    1.4454    1.4152 O.3       1 ACP        -0.5928
     21 C1'         0.6219    1.9765   -0.7844 C.3       1 ACP         0.3967
     22 N9          0.4237    1.4496   -2.1357 N.pl3     1 ACP        -0.6763
     23 C8         -0.7736    1.3475   -2.7932 C.ar      1 ACP         0.5586
     24 N7         -0.6356    0.8373   -3.9991 N.2       1 ACP        -0.5795
     25 C5          0.7095    0.5981   -4.1281 C.ar      1 ACP        -0.2116
     26 C6          1.4733    0.0704   -5.1643 C.ar      1 ACP         0.7185
     27 N6          0.8693   -0.3355   -6.3666 N.pl3     1 ACP        -0.9442
     28 N1          2.8130   -0.0482   -5.0009 N.ar      1 ACP        -0.8040
     29 C2          3.3380    0.3602   -3.8204 C.ar      1 ACP         0.6560
     30 N3          2.7052    0.8841   -2.7480 N.ar      1 ACP        -0.7058
     31 C4          1.3867    0.9726   -2.9785 C.ar      1 ACP         0.5729
     32 HOG2        8.4064    3.5486    6.8486 H         1 ACP         0.4440
     33 HOG3        9.0282    3.0200    4.0937 H         1 ACP         0.4440
     34 H3B1        5.3396    3.2189    4.7737 H         1 ACP         0.1084
     35 H3B2        5.1415    4.8796    5.3258 H         1 ACP         0.1084
     36 H5'1        4.3181    1.3551   -0.6470 H         1 ACP         0.0281
     37 H5'2        4.6085    1.5740    1.0982 H         1 ACP         0.0281
     38 H4'         2.3751    2.7029    1.3156 H         1 ACP         0.1082
     39 H3'         2.4336   -0.1217   -0.0015 H         1 ACP         0.0650
     40 HO3'        1.7160   -0.6716    2.0397 H         1 ACP         0.4300
     41 H2'         0.0316    0.0155   -0.0339 H         1 ACP         0.0785
     42 HO2'       -0.1608    0.7921    2.1351 H         1 ACP         0.4275
     43 H1'        -0.1474    2.7798   -0.6651 H         1 ACP         0.1009
     44 H8         -1.7070    1.6599   -2.3451 H         1 ACP         0.1067
     45 HN61       -0.1277   -0.2866   -6.4583 H         1 ACP         0.4213
     46 HN62        1.4308   -0.7566   -7.0823 H         1 ACP         0.4213
     47 H2          4.4130    0.2505   -3.7241 H         1 ACP         0.0365
@<TRIPOS>BOND
     1    1    2 2
     2    1    3 1
     3    1    4 1
     4    1    8 1
     5    3   32 1
     6    4   33 1
     7    5    6 2
     8    5    7 1
     9    5    8 1
    10    5   12 1
    11    8   34 1
    12    8   35 1
    13    9   10 2
    14    9   11 1
    15    9   12 1
    16    9   13 1
    17   13   14 1
    18   14   15 1
    19   14   36 1
    20   14   37 1
    21   15   16 1
    22   15   17 1
    23   15   38 1
    24   16   21 1
    25   17   18 1
    26   17   19 1
    27   17   39 1
    28   18   40 1
    29   19   20 1
    30   19   21 1
    31   19   41 1
    32   20   42 1
    33   21   22 1
    34   21   43 1
    35   22   23 ar
    36   22   31 ar
    37   23   24 ar
    38   23   44 1
    39   24   25 ar
    40   25   26 ar
    41   25   31 ar
    42   26   27 1
    43   26   28 ar
    44   27   45 1
    45   27   46 1
    46   28   29 ar
    47   29   30 ar
    48   29   47 1
    49   30   31 ar
@<TRIPOS>SUBSTRUCTURE
     1 ACP         1 GROUP 0 A     ****
@<TRIPOS>MOLECULE
[[5-(6-aminopurin-9-yl)-3,4-dihydroxy-tetrahydrofuran-2-yl]methoxy-oxido-phosphoryl]oxy-(phosphonomethyl)phosphinate
   47    49     1     0     0
SMALL
USER_CHARGES

@<TRIPOS>ATOM
      1 PG          8.3706    5.7361   -2.4013 P.3       1 ACP         1.6478
      2 O1G         9.0010    4.9968   -1.2597 O.2       1 ACP        -0.9103
      3 O2G         8.8210    5.2513   -3.8752 O.3       1 ACP        -0.7989
      4 O3G         8.6383    7.3289   -2.4275 O.3       1 ACP        -0.7989
      5 PB          5.6656    4.0141   -2.6207 P.3       1 ACP         1.4947
      6 O1B         6.1103    3.3781   -3.9174 O.co2     1 ACP        -0.8554
      7 O2B         4.2112    4.2815   -2.3100 O.co2     1 ACP        -0.8554
      8 C3B         6.5681    5.6205   -2.4600 C.3       1 ACP        -0.6550
      9 PA          6.2485    3.4955    0.2424 P.3       1 ACP         1.5921
     10 O1A         6.5918    4.9420    0.5255 O.co2     1 ACP        -0.8561
     11 O2A         6.9748    2.3768    0.9573 O.co2     1 ACP        -0.8561
     12 O3A         6.3651    3.2411   -1.3667 O.3       1 ACP        -0.8166
     13 O5'         4.6404    3.2702    0.4379 O.3       1 ACP        -0.5737
     14 C5'         4.0922    1.9801    0.2227 C.3       1 ACP         0.2197
     15 C4'         2.5944    2.0310    0.4653 C.3       1 ACP         0.0944
     16 O4'         1.9327    2.5740   -0.6889 O.3       1 ACP        -0.4017
     17 C3'         1.9685    0.6634    0.6767 C.3       1 ACP         0.0859
     18 O3'         2.1425    0.1975    1.9977 O.3       1 ACP        -0.5941
     19 C2'         0.5176    0.9128    0.3099 C.3       1 ACP         0.0924
     20 O2'        -0.2103    1.4454    1.4152 O.3       1 ACP        -0.5928
     21 C1'         0.6219    1.9765   -0.7844 C.3       1 ACP         0.3967
     22 N9          0.4237    1.4496   -2.1357 N.pl3     1 ACP        -0.6763
     23 C8         -0.7736    1.3475   -2.7932 C.ar      1 ACP         0.5586
     24 N7         -0.6356    0.8373   -3.9991 N.2       1 ACP        -0.5795
     25 C5          0.7095    0.5981   -4.1281 C.ar      1 ACP        -0.2116
     26 C6          1.4733    0.0704   -5.1643 C.ar      1 ACP         0.7185
     27 N6          0.8693   -0.3355   -6.3666 N.pl3     1 ACP        -0.9442
     28 N1          2.8130   -0.0482   -5.0009 N.ar      1 ACP        -0.8040
     29 C2          3.3380    0.3602   -3.8204 C.ar      1 ACP         0.6560
     30 N3          2.7052    0.8841   -2.7480 N.ar      1 ACP        -0.7058
     31 C4          1.3867    0.9726   -2.9785 C.ar      1 ACP         0.5729
     32 HOG2        9.7684    5.3037   -4.1237 H         1 ACP         0.4440
     33 HOG3        9.5616    7.6547   -2.4851 H         1 ACP         0.4440
     34 H3B1        6.1767    6.0880   -1.5495 H         1 ACP         0.1084
     35 H3B2        6.2355    6.2361   -3.3035 H         1 ACP         0.1084
     36 H5'1        4.3030    1.6732   -0.8066 H         1 ACP         0.0281
     37 H5'2        4.5679    1.2741    0.9106 H         1 ACP         0.0281
     38 H4'         2.3751    2.7029    1.3156 H         1 ACP         0.1082
     39 H3'         2.4336   -0.1217   -0.0015 H         1 ACP         0.0650
     40 HO3'        1.7160   -0.6716    2.0397 H         1 ACP         0.4300
     41 H2'         0.0316    0.0155   -0.0339 H         1 ACP         0.0785
     42 HO2'       -0.1608    0.7921    2.1351 H         1 ACP         0.4275
     43 H1'        -0.1474    2.7798   -0.6651 H         1 ACP         0.1009
     44 H8         -1.7070    1.6599   -2.3451 H         1 ACP         0.1067
     45 HN61       -0.1277   -0.2866   -6.4583 H         1 ACP         0.4213
     46 HN62        1.4308   -0.7566   -7.0823 H         1 ACP         0.4213
     47 H2          4.4130    0.2505   -3.7241 H         1 ACP         0.0365
@<TRIPOS>BOND
     1    1    2 2
     2    1    3 1
     3    1    4 1
     4    1    8 1
     5    3   32 1
     6    4   33 1
     7    5    6 2
     8    5    7 1
     9    5    8 1
    10    5   12 1
    11    8   34 1
    12    8   35 1
    13    9   10 2
    14    9   11 1
    15    9   12 1
    16    9   13 1
    17   13   14 1
    18   14   15 1
    19   14   36 1
    20   14   37 1
    21   15   16 1
    22   15   17 1
    23   15   38 1
    24   16   21 1
    25   17   18 1
    26   17   19 1
    27   17   39 1
    28   18   40 1
    29   19   20 1
    30   19   21 1
    31   19   41 1
    32   20   42 1
    33   21   22 1
    34   21   43 1
    35   22   23 ar
    36   22   31 ar
    37   23   24 ar
    38   23   44 1
    39   24   25 ar
    40   25   26 ar
    41   25   31 ar
    42   26   27 1
    43   26   28 ar
    44   27   45 1
    45   27   46 1
    46   28   29 ar
    47   29   30 ar
    48   29   47 1
    49   30   31 ar
@<TRIPOS>SUBSTRUCTURE
     1 ACP         1 GROUP 0 A     ****
@<TRIPOS>MOLECULE
[[5-(6-aminopurin-9-yl)-3,4-dihydroxy-tetrahydrofuran-2-yl]methoxy-oxido-phosphoryl]oxy-(phosphonomethyl)phosphinate
   47    49     1     0     0
SMALL
USER_CHARGES

@<TRIPOS>ATOM
      1 PG          6.0507    1.7764   -5.3567 P.3       1 ACP         1.6478
      2 O1G         4.8210    1.2570   -4.6745 O.2       1 ACP        -0.9103
      3 O2G         5.9181    3.2545   -5.9954 O.3       1 ACP        -0.7989
      4 O3G         6.5924    0.8791   -6.5859 O.3       1 ACP        -0.7989
      5 PB          7.5294    2.9851   -2.7717 P.3       1 ACP         1.4947
      6 O1B         7.2739    4.4051   -3.2211 O.co2     1 ACP        -0.8554
      7 O2B         8.7532    2.5989   -1.9738 O.co2     1 ACP        -0.8554
      8 C3B         7.4964    1.9176   -4.2817 C.3       1 ACP        -0.6550
      9 PA          5.8978    0.9307   -1.3850 P.3       1 ACP         1.5921
     10 O1A         6.7853    0.7713   -0.1696 O.co2     1 ACP        -0.8561
     11 O2A         5.9043   -0.1078   -2.4857 O.co2     1 ACP        -0.8561
     12 O3A         6.1915    2.3921   -2.0524 O.3       1 ACP        -0.8166
     13 O5'         4.3514    1.1573   -0.9028 O.3       1 ACP        -0.5737
     14 C5'         4.0922    1.9801    0.2227 C.3       1 ACP         0.2197
     15 C4'         2.5944    2.0310    0.4653 C.3       1 ACP         0.0944
     16 O4'         1.9327    2.5740   -0.6889 O.3       1 ACP        -0.4017
     17 C3'         1.9685    0.6634    0.6767 C.3       1 ACP         0.0859
     18 O3'         2.1425    0.1975    1.9977 O.3       1 ACP        -0.5941
     19 C2'         0.5176    0.9128    0.3099 C.3       1 ACP         0.0924
     20 O2'        -0.2103    1.4454    1.4152 O.3       1 ACP        -0.5928
     21 C1'         0.6219    1.9765   -0.7844 C.3       1 ACP         0.3967
     22 N9          0.4237    1.4496   -2.1357 N.pl3     1 ACP        -0.6763
     23 C8          1.4026    0.9717   -2.9660 C.ar      1 ACP         0.5586
     24 N7          0.9183    0.5619   -4.1197 N.2       1 ACP        -0.5795
     25 C5         -0.4330    0.7845   -4.0331 C.ar      1 ACP        -0.2116
     26 C6         -1.4794    0.5615   -4.9225 C.ar      1 ACP         0.7185
     27 N6         -1.2378    0.0044   -6.1899 N.pl3     1 ACP        -0.9442
     28 N1         -2.7406    0.8885   -4.5512 N.ar      1 ACP        -0.8040
     29 C2         -2.9113    1.4216   -3.3172 C.ar      1 ACP         0.6560
     30 N3         -1.9824    1.6843   -2.3721 N.ar      1 ACP        -0.7058
     31 C4         -0.7613    1.3370   -2.8054 C.ar      1 ACP         0.5729
     32 HOG2        5.2427    3.4136   -6.6886 H         1 ACP         0.4440
     33 HOG3        6.0056    0.7254   -7.3567 H         1 ACP         0.4440
     34 H3B1        7.7509    0.9097   -3.9351 H         1 ACP         0.1084
     35 H3B2        8.3283    2.2596   -4.9080 H         1 ACP         0.1084
     36 H5'1        4.6070    1.5616    1.0933 H         1 ACP         0.0281
     37 H5'2        4.4825    2.9835    0.0251 H         1 ACP         0.0281
     38 H4'         2.3751    2.7029    1.3156 H         1 ACP         0.1082
     39 H3'         2.4336   -0.1217   -0.0015 H         1 ACP         0.0650
     40 HO3'        1.7160   -0.6716    2.0397 H         1 ACP         0.4300
     41 H2'         0.0316    0.0155   -0.0339 H         1 ACP         0.0785
     42 HO2'       -0.1608    0.7921    2.1351 H         1 ACP         0.4275
     43 H1'        -0.1474    2.7798   -0.6651 H         1 ACP         0.1009
     44 H8          2.4442    0.9470   -2.6763 H         1 ACP         0.1067
     45 HN61       -0.2955   -0.1901   -6.4713 H         1 ACP         0.4213
     46 HN62       -1.9987   -0.1045   -6.8334 H         1 ACP         0.4213
     47 H2         -3.9335    1.6716   -3.0534 H         1 ACP         0.0365
@<TRIPOS>BOND
     1    1    2 2
     2    1    3 1
     3    1    4 1
     4    1    8 1
     5    3   32 1
     6    4   33 1
     7    5    6 2
     8    5    7 1
     9    5    8 1
    10    5   12 1
    11    8   34 1
    12    8   35 1
    13    9   10 2
    14    9   11 1
    15    9   12 1
    16    9   13 1
    17   13   14 1
    18   14   15 1
    19   14   36 1
    20   14   37 1
    21   15   16 1
    22   15   17 1
    23   15   38 1
    24   16   21 1
    25   17   18 1
    26   17   19 1
    27   17   39 1
    28   18   40 1
    29   19   20 1
    30   19   21 1
    31   19   41 1
    32   20   42 1
    33   21   22 1
    34   21   43 1
    35   22   23 ar
    36   22   31 ar
    37   23   24 ar
    38   23   44 1
    39   24   25 ar
    40   25   26 ar
    41   25   31 ar
    42   26   27 1
    43   26   28 ar
    44   27   45 1
    45   27   46 1
    46   28   29 ar
    47   29   30 ar
    48   29   47 1
    49   30   31 ar
@<TRIPOS>SUBSTRUCTURE
     1 ACP         1 GROUP 0 A     ****
@<TRIPOS>MOLECULE
[[5-(6-aminopurin-9-yl)-3,4-dihydroxy-tetrahydrofuran-2-yl]methoxy-oxido-phosphoryl]oxy-(phosphonomethyl)phosphinate
   47    49     1     0     0
SMALL
USER_CHARGES

@<TRIPOS>ATOM
      1 PG         -4.7370    5.4741    5.1915 P.3       1 ACP         1.6478
      2 O1G        -6.0409    4.9497    5.7131 O.2       1 ACP        -0.9103
      3 O2G        -4.1261    6.7367    5.9932 O.3       1 ACP        -0.7989
      4 O3G        -4.7557    5.9731    3.6552 O.3       1 ACP        -0.7989
      5 PB         -1.6773    4.6660    4.6301 P.3       1 ACP         1.4947
      6 O1B        -0.8438    3.4186    4.8111 O.co2     1 ACP        -0.8554
      7 O2B        -1.2858    5.9934    5.2370 O.co2     1 ACP        -0.8554
      8 C3B        -3.3865    4.2737    5.2179 C.3       1 ACP        -0.6550
      9 PA         -1.0481    5.0552    1.7563 P.3       1 ACP         1.5921
     10 O1A        -0.1188    6.2188    2.0266 O.co2     1 ACP        -0.8561
     11 O2A        -1.8976    5.0221    0.5044 O.co2     1 ACP        -0.8561
     12 O3A        -2.0269    4.8631    3.0495 O.3       1 ACP        -0.8166
     13 O5'        -0.2059    3.6558    1.8419 O.3       1 ACP        -0.5737
     14 C5'        -0.8811    2.4285    1.6206 C.3       1 ACP         0.2197
     15 C4'        -0.1994    1.3333    2.4288 C.3       1 ACP         0.0944
     16 O4'        -1.1285    0.2356    2.5840 O.3       1 ACP        -0.4017
     17 C3'         1.0324    0.7610    1.7344 C.3       1 ACP         0.0859
     18 O3'         1.9175    0.2377    2.7247 O.3       1 ACP        -0.5941
     19 C2'         0.4468   -0.3802    0.9263 C.3       1 ACP         0.0924
     20 O2'         1.3993   -1.3703    0.5961 O.3       1 ACP        -0.5928
     21 C1'        -0.6159   -0.9100    1.8769 C.3       1 ACP         0.3967
     22 N9         -1.7127   -1.6108    1.2130 N.pl3     1 ACP        -0.6763
     23 C8         -2.5476   -1.0844    0.2632 C.ar      1 ACP         0.5586
     24 N7         -3.4391   -1.9591   -0.1536 N.2       1 ACP        -0.5795
     25 C5         -3.1701   -3.1016    0.5574 C.ar      1 ACP        -0.2116
     26 C6         -3.7593   -4.3620    0.5656 C.ar      1 ACP         0.7185
     27 N6         -4.8512   -4.6493   -0.2712 N.pl3     1 ACP        -0.9442
     28 N1         -3.2659   -5.3144    1.3932 N.ar      1 ACP        -0.8040
     29 C2         -2.2122   -4.9785    2.1759 C.ar      1 ACP         0.6560
     30 N3         -1.5595   -3.7985    2.2572 N.ar      1 ACP        -0.7058
     31 C4         -2.0986   -2.9054    1.4140 C.ar      1 ACP         0.5729
     32 HOG2       -4.6492    7.5648    6.0450 H         1 ACP         0.4440
     33 HOG3       -5.3618    6.7005    3.3992 H         1 ACP         0.4440
     34 H3B1       -3.2702    3.9291    6.2517 H         1 ACP         0.1084
     35 H3B2       -3.7146    3.4101    4.6284 H         1 ACP         0.1084
     36 H5'1       -1.9255    2.5383    1.9294 H         1 ACP         0.0281
     37 H5'2       -0.8472    2.1934    0.5521 H         1 ACP         0.0281
     38 H4'         0.0403    1.7078    3.4343 H         1 ACP         0.1082
     39 H3'         1.5906    1.4859    1.1353 H         1 ACP         0.0650
     40 HO3'        2.1521    0.9800    3.3017 H         1 ACP         0.4300
     41 H2'        -0.0017    0.0018    0.0005 H         1 ACP         0.0785
     42 HO2'        0.9369   -2.0558    0.0825 H         1 ACP         0.4275
     43 H1'        -0.1998   -1.6319    2.6178 H         1 ACP         0.1009
     44 H8         -2.4576   -0.0639   -0.0831 H         1 ACP         0.1067
     45 HN61       -5.2371   -3.9234   -0.8448 H         1 ACP         0.4213
     46 HN62       -5.2909   -5.5485   -0.2160 H         1 ACP         0.4213
     47 H2         -1.8433   -5.7650    2.8259 H         1 ACP         0.0365
@<TRIPOS>BOND
     1    1    2 2
     2    1    3 1
     3    1    4 1
     4    1    8 1
     5    3   32 1
     6    4   33 1
     7    5    6 2
     8    5    7 1
     9    5    8 1
    10    5   12 1
    11    8   34 1
    12    8   35 1
    13    9   10 2
    14    9   11 1
    15    9   12 1
    16    9   13 1
    17   13   14 1
    18   14   15 1
    19   14   36 1
    20   14   37 1
    21   15   16 1
    22   15   17 1
    23   15   38 1
    24   16   21 1
    25   17   18 1
    26   17   19 1
    27   17   39 1
    28   18   40 1
    29   19   20 1
    30   19   21 1
    31   19   41 1
    32   20   42 1
    33   21   22 1
    34   21   43 1
    35   22   23 ar
    36   22   31 ar
    37   23   24 ar
    38   23   44 1
    39   24   25 ar
    40   25   26 ar
    41   25   31 ar
    42   26   27 1
    43   26   28 ar
    44   27   45 1
    45   27   46 1
    46   28   29 ar
    47   29   30 ar
    48   29   47 1
    49   30   31 ar
@<TRIPOS>SUBSTRUCTURE
     1 ACP         1 GROUP 0 A     ****
@<TRIPOS>MOLECULE
[[5-(6-aminopurin-9-yl)-3,4-dihydroxy-tetrahydrofuran-2-yl]methoxy-oxido-phosphoryl]oxy-(phosphonomethyl)phosphinate
   47    49     1     0     0
SMALL
USER_CHARGES

@<TRIPOS>ATOM
      1 PG          2.8414    3.5191   -4.7278 P.3       1 ACP         1.6478
      2 O1G         1.7022    3.0220   -5.5659 O.2       1 ACP        -0.9103
      3 O2G         2.5548    3.5909   -3.1394 O.3       1 ACP        -0.7989
      4 O3G         3.3687    5.0035   -5.0857 O.3       1 ACP        -0.7989
      5 PB          5.8862    2.9079   -3.8998 P.3       1 ACP         1.4947
      6 O1B         6.3402    4.2792   -4.3437 O.co2     1 ACP        -0.8554
      7 O2B         6.7835    1.6948   -3.9818 O.co2     1 ACP        -0.8554
      8 C3B         4.3391    2.5135   -4.8335 C.3       1 ACP        -0.6550
      9 PA          5.8654    3.5047   -0.9930 P.3       1 ACP         1.5921
     10 O1A         6.1794    4.9814   -1.0996 O.co2     1 ACP        -0.8561
     11 O2A         6.9343    2.5175   -0.5774 O.co2     1 ACP        -0.8561
     12 O3A         5.2269    3.0075   -2.4116 O.3       1 ACP        -0.8166
     13 O5'         4.5669    3.2941   -0.0211 O.3       1 ACP        -0.5737
     14 C5'         4.0922    1.9801    0.2227 C.3       1 ACP         0.2197
     15 C4'         2.5944    2.0310    0.4653 C.3       1 ACP         0.0944
     16 O4'         1.9327    2.5740   -0.6889 O.3       1 ACP        -0.4017
     17 C3'         1.9685    0.6634    0.6767 C.3       1 ACP         0.0859
     18 O3'         2.1425    0.1975    1.9977 O.3       1 ACP        -0.5941
     19 C2'         0.5176    0.9128    0.3099 C.3       1 ACP         0.0924
     20 O2'        -0.2103    1.4454    1.4152 O.3       1 ACP        -0.5928
     21 C1'         0.6219    1.9765   -0.7844 C.3       1 ACP         0.3967
     22 N9          0.4237    1.4496   -2.1357 N.pl3     1 ACP        -0.6763
     23 C8          1.4026    0.9717   -2.9660 C.ar      1 ACP         0.5586
     24 N7          0.9183    0.5619   -4.1197 N.2       1 ACP        -0.5795
     25 C5         -0.4330    0.7845   -4.0331 C.ar      1 ACP        -0.2116
     26 C6         -1.4794    0.5615   -4.9225 C.ar      1 ACP         0.7185
     27 N6         -1.2378    0.0044   -6.1899 N.pl3     1 ACP        -0.9442
     28 N1         -2.7406    0.8885   -4.5512 N.ar      1 ACP        -0.8040
     29 C2         -2.9113    1.4216   -3.3172 C.ar      1 ACP         0.6560
     30 N3         -1.9824    1.6843   -2.3721 N.ar      1 ACP        -0.7058
     31 C4         -0.7613    1.3370   -2.8054 C.ar      1 ACP         0.5729
     32 HOG2        1.8254    4.1600   -2.8135 H         1 ACP         0.4440
     33 HOG3        2.7464    5.7584   -5.0162 H         1 ACP         0.4440
     34 H3B1        4.0726    1.4911   -4.5429 H         1 ACP         0.1084
     35 H3B2        4.6279    2.4801   -5.8903 H         1 ACP         0.1084
     36 H5'1        4.3181    1.3551   -0.6470 H         1 ACP         0.0281
     37 H5'2        4.6085    1.5740    1.0982 H         1 ACP         0.0281
     38 H4'         2.3751    2.7029    1.3156 H         1 ACP         0.1082
     39 H3'         2.4336   -0.1217   -0.0015 H         1 ACP         0.0650
     40 HO3'        3.0987    0.1465    2.1461 H         1 ACP         0.4300
     41 H2'         0.0316    0.0155   -0.0339 H         1 ACP         0.0785
     42 HO2'       -1.1270    1.5823    1.1180 H         1 ACP         0.4275
     43 H1'        -0.1474    2.7798   -0.6651 H         1 ACP         0.1009
     44 H8          2.4442    0.9470   -2.6763 H         1 ACP         0.1067
     45 HN61       -0.2955   -0.1901   -6.4713 H         1 ACP         0.4213
     46 HN62       -1.9987   -0.1045   -6.8334 H         1 ACP         0.4213
     47 H2         -3.9335    1.6716   -3.0534 H         1 ACP         0.0365
@<TRIPOS>BOND
     1    1    2 2
     2    1    3 1
     3    1    4 1
     4    1    8 1
     5    3   32 1
     6    4   33 1
     7    5    6 2
     8    5    7 1
     9    5    8 1
    10    5   12 1
    11    8   34 1
    12    8   35 1
    13    9   10 2
    14    9   11 1
    15    9   12 1
    16    9   13 1
    17   13   14 1
    18   14   15 1
    19   14   36 1
    20   14   37 1
    21   15   16 1
    22   15   17 1
    23   15   38 1
    24   16   21 1
    25   17   18 1
    26   17   19 1
    27   17   39 1
    28   18   40 1
    29   19   20 1
    30   19   21 1
    31   19   41 1
    32   20   42 1
    33   21   22 1
    34   21   43 1
    35   22   23 ar
    36   22   31 ar
    37   23   24 ar
    38   23   44 1
    39   24   25 ar
    40   25   26 ar
    41   25   31 ar
    42   26   27 1
    43   26   28 ar
    44   27   45 1
    45   27   46 1
    46   28   29 ar
    47   29   30 ar
    48   29   47 1
    49   30   31 ar
@<TRIPOS>SUBSTRUCTURE
     1 ACP         1 GROUP 0 A     ****
@<TRIPOS>MOLECULE
[[5-(6-aminopurin-9-yl)-3,4-dihydroxy-tetrahydrofuran-2-yl]methoxy-oxido-phosphoryl]oxy-(phosphonomethyl)phosphinate
   47    49     1     0     0
SMALL
USER_CHARGES

@<TRIPOS>ATOM
      1 PG         -0.3265    8.2250    0.5722 P.3       1 ACP         1.6478
      2 O1G         0.3081    7.0031   -0.0209 O.2       1 ACP        -0.9103
      3 O2G        -1.6687    8.7378   -0.1664 O.3       1 ACP        -0.7989
      4 O3G         0.6098    9.5408    0.6144 O.3       1 ACP        -0.7989
      5 PB         -2.0832    6.7718    2.8375 P.3       1 ACP         1.4947
      6 O1B        -3.3710    7.0581    2.1005 O.co2     1 ACP        -0.8554
      7 O2B        -2.0156    6.6971    4.3453 O.co2     1 ACP        -0.8554
      8 C3B        -0.8469    8.0347    2.2922 C.3       1 ACP        -0.6550
      9 PA          0.0332    4.7082    2.5761 P.3       1 ACP         1.5921
     10 O1A        -0.1148    4.1078    3.9574 O.co2     1 ACP        -0.8561
     11 O2A         1.1835    5.6391    2.2595 O.co2     1 ACP        -0.8561
     12 O3A        -1.3627    5.4617    2.1868 O.3       1 ACP        -0.8166
     13 O5'         0.0182    3.5132    1.4596 O.3       1 ACP        -0.5737
     14 C5'        -0.8811    2.4285    1.6206 C.3       1 ACP         0.2197
     15 C4'        -0.1994    1.3333    2.4288 C.3       1 ACP         0.0944
     16 O4'        -1.1285    0.2356    2.5840 O.3       1 ACP        -0.4017
     17 C3'         1.0324    0.7610    1.7344 C.3       1 ACP         0.0859
     18 O3'         1.9175    0.2377    2.7247 O.3       1 ACP        -0.5941
     19 C2'         0.4468   -0.3802    0.9263 C.3       1 ACP         0.0924
     20 O2'         1.3993   -1.3703    0.5961 O.3       1 ACP        -0.5928
     21 C1'        -0.6159   -0.9100    1.8769 C.3       1 ACP         0.3967
     22 N9         -1.7127   -1.6108    1.2130 N.pl3     1 ACP        -0.6763
     23 C8         -2.8641   -1.0399    0.7392 C.ar      1 ACP         0.5586
     24 N7         -3.6659   -1.9257    0.1858 N.2       1 ACP        -0.5795
     25 C5         -3.0053   -3.1223    0.3069 C.ar      1 ACP        -0.2116
     26 C6         -3.3321   -4.4178   -0.0813 C.ar      1 ACP         0.7185
     27 N6         -4.5476   -4.6866   -0.7335 N.pl3     1 ACP        -0.9442
     28 N1         -2.4608   -5.4225    0.1773 N.ar      1 ACP        -0.8040
     29 C2         -1.3053   -5.1020    0.8081 C.ar      1 ACP         0.6560
     30 N3         -0.8788   -3.8921    1.2315 N.ar      1 ACP        -0.7058
     31 C4         -1.7870   -2.9477    0.9438 C.ar      1 ACP         0.5729
     32 HOG2       -1.6219    8.9959   -1.1116 H         1 ACP         0.4440
     33 HOG3        0.9567    9.9044   -0.2280 H         1 ACP         0.4440
     34 H3B1        0.0512    7.8448    2.8907 H         1 ACP         0.1084
     35 H3B2       -1.2465    9.0031    2.6143 H         1 ACP         0.1084
     36 H5'1       -1.7769    2.7852    2.1386 H         1 ACP         0.0281
     37 H5'2       -1.1652    2.0544    0.6320 H         1 ACP         0.0281
     38 H4'         0.0403    1.7078    3.4343 H         1 ACP         0.1082
     39 H3'         1.5906    1.4859    1.1353 H         1 ACP         0.0650
     40 HO3'        2.1521    0.9800    3.3017 H         1 ACP         0.4300
     41 H2'        -0.0017    0.0018    0.0005 H         1 ACP         0.0785
     42 HO2'        2.0953   -0.9375    0.0709 H         1 ACP         0.4275
     43 H1'        -0.1998   -1.6319    2.6178 H         1 ACP         0.1009
     44 H8         -3.0609    0.0200    0.8250 H         1 ACP         0.1067
     45 HN61       -5.2046   -3.9433   -0.8775 H         1 ACP         0.4213
     46 HN62       -4.7849   -5.6332   -0.9625 H         1 ACP         0.4213
     47 H2         -0.6318   -5.9307    0.9993 H         1 ACP         0.0365
@<TRIPOS>BOND
     1    1    2 2
     2    1    3 1
     3    1    4 1
     4    1    8 1
     5    3   32 1
     6    4   33 1
     7    5    6 2
     8    5    7 1
     9    5    8 1
    10    5   12 1
    11    8   34 1
    12    8   35 1
    13    9   10 2
    14    9   11 1
    15    9   12 1
    16    9   13 1
    17   13   14 1
    18   14   15 1
    19   14   36 1
    20   14   37 1
    21   15   16 1
    22   15   17 1
    23   15   38 1
    24   16   21 1
    25   17   18 1
    26   17   19 1
    27   17   39 1
    28   18   40 1
    29   19   20 1
    30   19   21 1
    31   19   41 1
    32   20   42 1
    33   21   22 1
    34   21   43 1
    35   22   23 ar
    36   22   31 ar
    37   23   24 ar
    38   23   44 1
    39   24   25 ar
    40   25   26 ar
    41   25   31 ar
    42   26   27 1
    43   26   28 ar
    44   27   45 1
    45   27   46 1
    46   28   29 ar
    47   29   30 ar
    48   29   47 1
    49   30   31 ar
@<TRIPOS>SUBSTRUCTURE
     1 ACP         1 GROUP 0 A     ****
@<TRIPOS>MOLECULE
[[5-(6-aminopurin-9-yl)-3,4-dihydroxy-tetrahydrofuran-2-yl]methoxy-oxido-phosphoryl]oxy-(phosphonomethyl)phosphinate
   47    49     1     0     0
SMALL
USER_CHARGES

@<TRIPOS>ATOM
      1 PG          2.7617    5.3706    2.1019 P.3       1 ACP         1.6478
      2 O1G         4.1639    5.2275    2.6125 O.2       1 ACP        -0.9103
      3 O2G         1.8741    4.0208    2.1236 O.3       1 ACP        -0.7989
      4 O3G         2.6289    5.8876    0.5772 O.3       1 ACP        -0.7989
      5 PB         -0.0154    6.9094    2.6020 P.3       1 ACP         1.4947
      6 O1B        -0.0360    7.4460    1.1895 O.co2     1 ACP        -0.8554
      7 O2B        -0.6105    7.6710    3.7636 O.co2     1 ACP        -0.8554
      8 C3B         1.7484    6.5477    3.0255 C.3       1 ACP        -0.6550
      9 PA         -2.0037    4.7529    2.1525 P.3       1 ACP         1.5921
     10 O1A        -2.1554    4.9422    0.6587 O.co2     1 ACP        -0.8561
     11 O2A        -3.0660    5.2571    3.1051 O.co2     1 ACP        -0.8561
     12 O3A        -0.5638    5.3737    2.6095 O.3       1 ACP        -0.8166
     13 O5'        -1.7337    3.1724    2.4754 O.3       1 ACP        -0.5737
     14 C5'        -0.8811    2.4285    1.6206 C.3       1 ACP         0.2197
     15 C4'        -0.1994    1.3333    2.4288 C.3       1 ACP         0.0944
     16 O4'        -1.1285    0.2356    2.5840 O.3       1 ACP        -0.4017
     17 C3'         1.0324    0.7610    1.7344 C.3       1 ACP         0.0859
     18 O3'         1.9175    0.2377    2.7247 O.3       1 ACP        -0.5941
     19 C2'         0.4468   -0.3802    0.9263 C.3       1 ACP         0.0924
     20 O2'         1.3993   -1.3703    0.5961 O.3       1 ACP        -0.5928
     21 C1'        -0.6159   -0.9100    1.8769 C.3       1 ACP         0.3967
     22 N9         -1.7127   -1.6108    1.2130 N.pl3     1 ACP        -0.6763
     23 C8         -1.7712   -2.9546    0.9544 C.ar      1 ACP         0.5586
     24 N7         -2.8883   -3.2948    0.3462 N.2       1 ACP        -0.5795
     25 C5         -3.5834   -2.1202    0.2043 C.ar      1 ACP        -0.2116
     26 C6         -4.8225   -1.8251   -0.3554 C.ar      1 ACP         0.7185
     27 N6         -5.6154   -2.8394   -0.9189 N.pl3     1 ACP        -0.9442
     28 N1         -5.2589   -0.5425   -0.3507 N.ar      1 ACP        -0.8040
     29 C2         -4.4510    0.3913    0.2069 C.ar      1 ACP         0.6560
     30 N3         -3.2368    0.2296    0.7767 N.ar      1 ACP        -0.7058
     31 C4         -2.8684   -1.0596    0.7376 C.ar      1 ACP         0.5729
     32 HOG2        2.1785    3.2437    1.6083 H         1 ACP         0.4440
     33 HOG3        3.0328    5.3564   -0.1416 H         1 ACP         0.4440
     34 H3B1        1.7394    6.2262    4.0731 H         1 ACP         0.1084
     35 H3B2        2.2678    7.5122    2.9918 H         1 ACP         0.1084
     36 H5'1       -1.4802    1.9929    0.8148 H         1 ACP         0.0281
     37 H5'2       -0.1370    3.1043    1.1873 H         1 ACP         0.0281
     38 H4'         0.0403    1.7078    3.4343 H         1 ACP         0.1082
     39 H3'         1.5906    1.4859    1.1353 H         1 ACP         0.0650
     40 HO3'        2.6839   -0.1150    2.2479 H         1 ACP         0.4300
     41 H2'        -0.0017    0.0018    0.0005 H         1 ACP         0.0785
     42 HO2'        0.9369   -2.0558    0.0825 H         1 ACP         0.4275
     43 H1'        -0.1998   -1.6319    2.6178 H         1 ACP         0.1009
     44 H8         -0.9745   -3.6312    1.2318 H         1 ACP         0.1067
     45 HN61       -5.2619   -3.7766   -0.9586 H         1 ACP         0.4213
     46 HN62       -6.4834   -2.5990   -1.3590 H         1 ACP         0.4213
     47 H2         -4.8317    1.4071    0.1930 H         1 ACP         0.0365
@<TRIPOS>BOND
     1    1    2 2
     2    1    3 1
     3    1    4 1
     4    1    8 1
     5    3   32 1
     6    4   33 1
     7    5    6 2
     8    5    7 1
     9    5    8 1
    10    5   12 1
    11    8   34 1
    12    8   35 1
    13    9   10 2
    14    9   11 1
    15    9   12 1
    16    9   13 1
    17   13   14 1
    18   14   15 1
    19   14   36 1
    20   14   37 1
    21   15   16 1
    22   15   17 1
    23   15   38 1
    24   16   21 1
    25   17   18 1
    26   17   19 1
    27   17   39 1
    28   18   40 1
    29   19   20 1
    30   19   21 1
    31   19   41 1
    32   20   42 1
    33   21   22 1
    34   21   43 1
    35   22   23 ar
    36   22   31 ar
    37   23   24 ar
    38   23   44 1
    39   24   25 ar
    40   25   26 ar
    41   25   31 ar
    42   26   27 1
    43   26   28 ar
    44   27   45 1
    45   27   46 1
    46   28   29 ar
    47   29   30 ar
    48   29   47 1
    49   30   31 ar
@<TRIPOS>SUBSTRUCTURE
     1 ACP         1 GROUP 0 A     ****
@<TRIPOS>MOLECULE
[[5-(6-aminopurin-9-yl)-3,4-dihydroxy-tetrahydrofuran-2-yl]methoxy-oxido-phosphoryl]oxy-(phosphonomethyl)phosphinate
   47    49     1     0     0
SMALL
USER_CHARGES

@<TRIPOS>ATOM
      1 PG         -1.5037    2.9429   -7.6885 P.3       1 ACP         1.6478
      2 O1G        -1.8495    3.7010   -6.4423 O.2       1 ACP        -0.9103
      3 O2G        -0.0152    3.1952   -8.2638 O.3       1 ACP        -0.7989
      4 O3G        -2.4561    3.2304   -8.9613 O.3       1 ACP        -0.7989
      5 PB         -0.5453    0.2049   -6.3048 P.3       1 ACP         1.4947
      6 O1B         0.9012    0.4716   -6.6513 O.co2     1 ACP        -0.8554
      7 O2B        -1.1104   -1.1941   -6.2204 O.co2     1 ACP        -0.8554
      8 C3B        -1.5813    1.1459   -7.5139 C.3       1 ACP        -0.6550
      9 PA         -2.3605    1.1374   -4.1504 P.3       1 ACP         1.5921
     10 O1A        -2.6576   -0.2202   -3.5510 O.co2     1 ACP        -0.8561
     11 O2A        -3.3777    1.8305   -5.0306 O.co2     1 ACP        -0.8561
     12 O3A        -0.9490    1.0452   -4.9668 O.3       1 ACP        -0.8166
     13 O5'        -1.9208    2.1717   -2.9622 O.3       1 ACP        -0.5737
     14 C5'        -0.7794    1.8744   -2.1748 C.3       1 ACP         0.2197
     15 C4'        -0.9699    2.4597   -0.7819 C.3       1 ACP         0.0944
     16 O4'        -2.1475    1.8640   -0.2014 O.3       1 ACP        -0.4017
     17 C3'         0.1697    2.1347    0.1695 C.3       1 ACP         0.0859
     18 O3'         0.1809    3.0982    1.2223 O.3       1 ACP        -0.5941
     19 C2'        -0.2543    0.7880    0.7187 C.3       1 ACP         0.0924
     20 O2'         0.3606    0.4944    1.9582 O.3       1 ACP        -0.5928
     21 C1'        -1.7682    0.9516    0.8548 C.3       1 ACP         0.3967
     22 N9         -2.5926   -0.2553    0.7436 N.pl3     1 ACP        -0.6763
     23 C8         -2.6465   -1.0979   -0.3350 C.ar      1 ACP         0.5586
     24 N7         -3.4765   -2.1012   -0.1400 N.2       1 ACP        -0.5795
     25 C5         -3.9826   -1.8994    1.1194 C.ar      1 ACP        -0.2116
     26 C6         -4.8981   -2.6116    1.8877 C.ar      1 ACP         0.7185
     27 N6         -5.4931   -3.7842    1.3916 N.pl3     1 ACP        -0.9442
     28 N1         -5.2111   -2.1602    3.1262 N.ar      1 ACP        -0.8040
     29 C2         -4.6051   -1.0248    3.5500 C.ar      1 ACP         0.6560
     30 N3         -3.7075   -0.2510    2.9016 N.ar      1 ACP        -0.7058
     31 C4         -3.4448   -0.7551    1.6866 C.ar      1 ACP         0.5729
     32 HOG2        0.2459    4.1043   -8.5237 H         1 ACP         0.4440
     33 HOG3       -2.5165    4.1441   -9.3128 H         1 ACP         0.4440
     34 H3B1       -2.6188    0.8804   -7.2816 H         1 ACP         0.1084
     35 H3B2       -1.3549    0.7190   -8.4976 H         1 ACP         0.1084
     36 H5'1       -0.6602    0.7877   -2.1203 H         1 ACP         0.0281
     37 H5'2        0.1041    2.3072   -2.6545 H         1 ACP         0.0281
     38 H4'        -1.1469    3.5409   -0.8522 H         1 ACP         0.1082
     39 H3'         1.1601    2.1310   -0.2934 H         1 ACP         0.0650
     40 HO3'        0.3098    3.9616    0.8017 H         1 ACP         0.4300
     41 H2'        -0.0024   -0.0091    0.0062 H         1 ACP         0.0785
     42 HO2'        0.0384   -0.3797    2.2403 H         1 ACP         0.4275
     43 H1'        -2.0584    1.4255    1.8301 H         1 ACP         0.1009
     44 H8         -2.0609   -0.9301   -1.2286 H         1 ACP         0.1067
     45 HN61       -5.2894   -4.0827    0.4566 H         1 ACP         0.4213
     46 HN62       -6.1852   -4.2564    1.9420 H         1 ACP         0.4213
     47 H2         -4.8793   -0.6924    4.5457 H         1 ACP         0.0365
@<TRIPOS>BOND
     1    1    2 2
     2    1    3 1
     3    1    4 1
     4    1    8 1
     5    3   32 1
     6    4   33 1
     7    5    6 2
     8    5    7 1
     9    5    8 1
    10    5   12 1
    11    8   34 1
    12    8   35 1
    13    9   10 2
    14    9   11 1
    15    9   12 1
    16    9   13 1
    17   13   14 1
    18   14   15 1
    19   14   36 1
    20   14   37 1
    21   15   16 1
    22   15   17 1
    23   15   38 1
    24   16   21 1
    25   17   18 1
    26   17   19 1
    27   17   39 1
    28   18   40 1
    29   19   20 1
    30   19   21 1
    31   19   41 1
    32   20   42 1
    33   21   22 1
    34   21   43 1
    35   22   23 ar
    36   22   31 ar
    37   23   24 ar
    38   23   44 1
    39   24   25 ar
    40   25   26 ar
    41   25   31 ar
    42   26   27 1
    43   26   28 ar
    44   27   45 1
    45   27   46 1
    46   28   29 ar
    47   29   30 ar
    48   29   47 1
    49   30   31 ar
@<TRIPOS>SUBSTRUCTURE
     1 ACP         1 GROUP 0 A     ****
@<TRIPOS>MOLECULE
[[5-(6-aminopurin-9-yl)-3,4-dihydroxy-tetrahydrofuran-2-yl]methoxy-oxido-phosphoryl]oxy-(phosphonomethyl)phosphinate
   47    49     1     0     0
SMALL
USER_CHARGES

@<TRIPOS>ATOM
      1 PG          7.8070   -0.1392   -0.9275 P.3       1 ACP         1.6478
      2 O1G         6.6082    0.0867   -0.0562 O.2       1 ACP        -0.9103
      3 O2G         7.5550   -1.0630   -2.2288 O.3       1 ACP        -0.7989
      4 O3G         9.0682   -0.8413   -0.2023 O.3       1 ACP        -0.7989
      5 PB          7.5731    2.5172   -2.7216 P.3       1 ACP         1.4947
      6 O1B         7.1494    1.7255   -3.9370 O.co2     1 ACP        -0.8554
      7 O2B         8.3699    3.7967   -2.8292 O.co2     1 ACP        -0.8554
      8 C3B         8.5190    1.3695   -1.6220 C.3       1 ACP        -0.6550
      9 PA          6.1592    3.5244   -0.3148 P.3       1 ACP         1.5921
     10 O1A         6.4205    4.9975   -0.5432 O.co2     1 ACP        -0.8561
     11 O2A         6.9491    2.7529    0.7199 O.co2     1 ACP        -0.8561
     12 O3A         6.2869    2.7480   -1.7461 O.3       1 ACP        -0.8166
     13 O5'         4.5669    3.2941   -0.0211 O.3       1 ACP        -0.5737
     14 C5'         4.0922    1.9801    0.2227 C.3       1 ACP         0.2197
     15 C4'         2.5944    2.0310    0.4653 C.3       1 ACP         0.0944
     16 O4'         1.9327    2.5740   -0.6889 O.3       1 ACP        -0.4017
     17 C3'         1.9685    0.6634    0.6767 C.3       1 ACP         0.0859
     18 O3'         2.1425    0.1975    1.9977 O.3       1 ACP        -0.5941
     19 C2'         0.5176    0.9128    0.3099 C.3       1 ACP         0.0924
     20 O2'        -0.2103    1.4454    1.4152 O.3       1 ACP        -0.5928
     21 C1'         0.6219    1.9765   -0.7844 C.3       1 ACP         0.3967
     22 N9          0.4237    1.4496   -2.1357 N.pl3     1 ACP        -0.6763
     23 C8          1.4026    0.9717   -2.9660 C.ar      1 ACP         0.5586
     24 N7          0.9183    0.5619   -4.1197 N.2       1 ACP        -0.5795
     25 C5         -0.4330    0.7845   -4.0331 C.ar      1 ACP        -0.2116
     26 C6         -1.4794    0.5615   -4.9225 C.ar      1 ACP         0.7185
     27 N6         -1.2378    0.0044   -6.1899 N.pl3     1 ACP        -0.9442
     28 N1         -2.7406    0.8885   -4.5512 N.ar      1 ACP        -0.8040
     29 C2         -2.9113    1.4216   -3.3172 C.ar      1 ACP         0.6560
     30 N3         -1.9824    1.6843   -2.3721 N.ar      1 ACP        -0.7058
     31 C4         -0.7613    1.3370   -2.8054 C.ar      1 ACP         0.5729
     32 HOG2        7.2427   -1.9844   -2.1040 H         1 ACP         0.4440
     33 HOG3        8.9550   -1.7334    0.1894 H         1 ACP         0.4440
     34 H3B1        8.8697    1.9853   -0.7861 H         1 ACP         0.1084
     35 H3B2        9.4056    1.0713   -2.1930 H         1 ACP         0.1084
     36 H5'1        4.3181    1.3551   -0.6470 H         1 ACP         0.0281
     37 H5'2        4.6085    1.5740    1.0982 H         1 ACP         0.0281
     38 H4'         2.3751    2.7029    1.3156 H         1 ACP         0.1082
     39 H3'         2.4336   -0.1217   -0.0015 H         1 ACP         0.0650
     40 HO3'        1.7160   -0.6716    2.0397 H         1 ACP         0.4300
     41 H2'         0.0316    0.0155   -0.0339 H         1 ACP         0.0785
     42 HO2'       -0.1608    0.7921    2.1351 H         1 ACP         0.4275
     43 H1'        -0.1474    2.7798   -0.6651 H         1 ACP         0.1009
     44 H8          2.4442    0.9470   -2.6763 H         1 ACP         0.1067
     45 HN61       -0.2955   -0.1901   -6.4713 H         1 ACP         0.4213
     46 HN62       -1.9987   -0.1045   -6.8334 H         1 ACP         0.4213
     47 H2         -3.9335    1.6716   -3.0534 H         1 ACP         0.0365
@<TRIPOS>BOND
     1    1    2 2
     2    1    3 1
     3    1    4 1
     4    1    8 1
     5    3   32 1
     6    4   33 1
     7    5    6 2
     8    5    7 1
     9    5    8 1
    10    5   12 1
    11    8   34 1
    12    8   35 1
    13    9   10 2
    14    9   11 1
    15    9   12 1
    16    9   13 1
    17   13   14 1
    18   14   15 1
    19   14   36 1
    20   14   37 1
    21   15   16 1
    22   15   17 1
    23   15   38 1
    24   16   21 1
    25   17   18 1
    26   17   19 1
    27   17   39 1
    28   18   40 1
    29   19   20 1
    30   19   21 1
    31   19   41 1
    32   20   42 1
    33   21   22 1
    34   21   43 1
    35   22   23 ar
    36   22   31 ar
    37   23   24 ar
    38   23   44 1
    39   24   25 ar
    40   25   26 ar
    41   25   31 ar
    42   26   27 1
    43   26   28 ar
    44   27   45 1
    45   27   46 1
    46   28   29 ar
    47   29   30 ar
    48   29   47 1
    49   30   31 ar
@<TRIPOS>SUBSTRUCTURE
     1 ACP         1 GROUP 0 A     ****
@<TRIPOS>MOLECULE
[[5-(6-aminopurin-9-yl)-3,4-dihydroxy-tetrahydrofuran-2-yl]methoxy-oxido-phosphoryl]oxy-(phosphonomethyl)phosphinate
   47    49     1     0     0
SMALL
USER_CHARGES

@<TRIPOS>ATOM
      1 PG         -0.3265    8.2250    0.5722 P.3       1 ACP         1.6478
      2 O1G         0.3081    7.0031   -0.0209 O.2       1 ACP        -0.9103
      3 O2G        -1.6687    8.7378   -0.1664 O.3       1 ACP        -0.7989
      4 O3G         0.6098    9.5408    0.6144 O.3       1 ACP        -0.7989
      5 PB         -2.0832    6.7718    2.8375 P.3       1 ACP         1.4947
      6 O1B        -3.3710    7.0581    2.1005 O.co2     1 ACP        -0.8554
      7 O2B        -2.0156    6.6971    4.3453 O.co2     1 ACP        -0.8554
      8 C3B        -0.8469    8.0347    2.2922 C.3       1 ACP        -0.6550
      9 PA          0.0332    4.7082    2.5761 P.3       1 ACP         1.5921
     10 O1A        -0.1148    4.1078    3.9574 O.co2     1 ACP        -0.8561
     11 O2A         1.1835    5.6391    2.2595 O.co2     1 ACP        -0.8561
     12 O3A        -1.3627    5.4617    2.1868 O.3       1 ACP        -0.8166
     13 O5'         0.0182    3.5132    1.4596 O.3       1 ACP        -0.5737
     14 C5'        -0.8811    2.4285    1.6206 C.3       1 ACP         0.2197
     15 C4'        -0.1994    1.3333    2.4288 C.3       1 ACP         0.0944
     16 O4'        -1.1285    0.2356    2.5840 O.3       1 ACP        -0.4017
     17 C3'         1.0324    0.7610    1.7344 C.3       1 ACP         0.0859
     18 O3'         1.9175    0.2377    2.7247 O.3       1 ACP        -0.5941
     19 C2'         0.4468   -0.3802    0.9263 C.3       1 ACP         0.0924
     20 O2'         1.3993   -1.3703    0.5961 O.3       1 ACP        -0.5928
     21 C1'        -0.6159   -0.9100    1.8769 C.3       1 ACP         0.3967
     22 N9         -1.7127   -1.6108    1.2130 N.pl3     1 ACP        -0.6763
     23 C8         -1.7712   -2.9546    0.9544 C.ar      1 ACP         0.5586
     24 N7         -2.8883   -3.2948    0.3462 N.2       1 ACP        -0.5795
     25 C5         -3.5834   -2.1202    0.2043 C.ar      1 ACP        -0.2116
     26 C6         -4.8225   -1.8251   -0.3554 C.ar      1 ACP         0.7185
     27 N6         -5.6154   -2.8394   -0.9189 N.pl3     1 ACP        -0.9442
     28 N1         -5.2589   -0.5425   -0.3507 N.ar      1 ACP        -0.8040
     29 C2         -4.4510    0.3913    0.2069 C.ar      1 ACP         0.6560
     30 N3         -3.2368    0.2296    0.7767 N.ar      1 ACP        -0.7058
     31 C4         -2.8684   -1.0596    0.7376 C.ar      1 ACP         0.5729
     32 HOG2       -1.6219    8.9959   -1.1116 H         1 ACP         0.4440
     33 HOG3        0.9567    9.9044   -0.2280 H         1 ACP         0.4440
     34 H3B1        0.0512    7.8448    2.8907 H         1 ACP         0.1084
     35 H3B2       -1.2465    9.0031    2.6143 H         1 ACP         0.1084
     36 H5'1       -1.7769    2.7852    2.1386 H         1 ACP         0.0281
     37 H5'2       -1.1652    2.0544    0.6320 H         1 ACP         0.0281
     38 H4'         0.0403    1.7078    3.4343 H         1 ACP         0.1082
     39 H3'         1.5906    1.4859    1.1353 H         1 ACP         0.0650
     40 HO3'        2.6839   -0.1150    2.2479 H         1 ACP         0.4300
     41 H2'        -0.0017    0.0018    0.0005 H         1 ACP         0.0785
     42 HO2'        2.0953   -0.9375    0.0709 H         1 ACP         0.4275
     43 H1'        -0.1998   -1.6319    2.6178 H         1 ACP         0.1009
     44 H8         -0.9745   -3.6312    1.2318 H         1 ACP         0.1067
     45 HN61       -5.2619   -3.7766   -0.9586 H         1 ACP         0.4213
     46 HN62       -6.4834   -2.5990   -1.3590 H         1 ACP         0.4213
     47 H2         -4.8317    1.4071    0.1930 H         1 ACP         0.0365
@<TRIPOS>BOND
     1    1    2 2
     2    1    3 1
     3    1    4 1
     4    1    8 1
     5    3   32 1
     6    4   33 1
     7    5    6 2
     8    5    7 1
     9    5    8 1
    10    5   12 1
    11    8   34 1
    12    8   35 1
    13    9   10 2
    14    9   11 1
    15    9   12 1
    16    9   13 1
    17   13   14 1
    18   14   15 1
    19   14   36 1
    20   14   37 1
    21   15   16 1
    22   15   17 1
    23   15   38 1
    24   16   21 1
    25   17   18 1
    26   17   19 1
    27   17   39 1
    28   18   40 1
    29   19   20 1
    30   19   21 1
    31   19   41 1
    32   20   42 1
    33   21   22 1
    34   21   43 1
    35   22   23 ar
    36   22   31 ar
    37   23   24 ar
    38   23   44 1
    39   24   25 ar
    40   25   26 ar
    41   25   31 ar
    42   26   27 1
    43   26   28 ar
    44   27   45 1
    45   27   46 1
    46   28   29 ar
    47   29   30 ar
    48   29   47 1
    49   30   31 ar
@<TRIPOS>SUBSTRUCTURE
     1 ACP         1 GROUP 0 A     ****
@<TRIPOS>MOLECULE
[[5-(6-aminopurin-9-yl)-3,4-dihydroxy-tetrahydrofuran-2-yl]methoxy-oxido-phosphoryl]oxy-(phosphonomethyl)phosphinate
   47    49     1     0     0
SMALL
USER_CHARGES

@<TRIPOS>ATOM
      1 PG          7.4359    6.4357    2.2165 P.3       1 ACP         1.6478
      2 O1G         6.0281    6.3483    1.7087 O.2       1 ACP        -0.9103
      3 O2G         7.6095    6.2646    3.8136 O.3       1 ACP        -0.7989
      4 O3G         8.2026    7.8214    1.8977 O.3       1 ACP        -0.7989
      5 PB          8.2764    3.3675    1.7586 P.3       1 ACP         1.4947
      6 O1B         8.2766    3.0883    3.2438 O.co2     1 ACP        -0.8554
      7 O2B         9.2050    2.6545    0.8032 O.co2     1 ACP        -0.8554
      8 C3B         8.5508    5.1837    1.5420 C.3       1 ACP        -0.6550
      9 PA          6.1592    3.5244   -0.3148 P.3       1 ACP         1.5921
     10 O1A         6.6744    2.4082   -1.1976 O.co2     1 ACP        -0.8561
     11 O2A         6.3656    4.9722   -0.7036 O.co2     1 ACP        -0.8561
     12 O3A         6.7482    3.3058    1.1928 O.3       1 ACP        -0.8166
     13 O5'         4.5669    3.2941   -0.0211 O.3       1 ACP        -0.5737
     14 C5'         4.0922    1.9801    0.2227 C.3       1 ACP         0.2197
     15 C4'         2.5944    2.0310    0.4653 C.3       1 ACP         0.0944
     16 O4'         1.9327    2.5740   -0.6889 O.3       1 ACP        -0.4017
     17 C3'         1.9685    0.6634    0.6767 C.3       1 ACP         0.0859
     18 O3'         2.1425    0.1975    1.9977 O.3       1 ACP        -0.5941
     19 C2'         0.5176    0.9128    0.3099 C.3       1 ACP         0.0924
     20 O2'        -0.2103    1.4454    1.4152 O.3       1 ACP        -0.5928
     21 C1'         0.6219    1.9765   -0.7844 C.3       1 ACP         0.3967
     22 N9          0.4237    1.4496   -2.1357 N.pl3     1 ACP        -0.6763
     23 C8          1.4026    0.9717   -2.9660 C.ar      1 ACP         0.5586
     24 N7          0.9183    0.5619   -4.1197 N.2       1 ACP        -0.5795
     25 C5         -0.4330    0.7845   -4.0331 C.ar      1 ACP        -0.2116
     26 C6         -1.4794    0.5615   -4.9225 C.ar      1 ACP         0.7185
     27 N6         -1.2378    0.0044   -6.1899 N.pl3     1 ACP        -0.9442
     28 N1         -2.7406    0.8885   -4.5512 N.ar      1 ACP        -0.8040
     29 C2         -2.9113    1.4216   -3.3172 C.ar      1 ACP         0.6560
     30 N3         -1.9824    1.6843   -2.3721 N.ar      1 ACP        -0.7058
     31 C4         -0.7613    1.3370   -2.8054 C.ar      1 ACP         0.5729
     32 HOG2        7.1593    6.8990    4.4110 H         1 ACP         0.4440
     33 HOG3        7.8303    8.6607    2.2428 H         1 ACP         0.4440
     34 H3B1        8.6135    5.3447    0.4599 H         1 ACP         0.1084
     35 H3B2        9.5461    5.3869    1.9534 H         1 ACP         0.1084
     36 H5'1        4.3181    1.3551   -0.6470 H         1 ACP         0.0281
     37 H5'2        4.6085    1.5740    1.0982 H         1 ACP         0.0281
     38 H4'         2.3751    2.7029    1.3156 H         1 ACP         0.1082
     39 H3'         2.4336   -0.1217   -0.0015 H         1 ACP         0.0650
     40 HO3'        3.0987    0.1465    2.1461 H         1 ACP         0.4300
     41 H2'         0.0316    0.0155   -0.0339 H         1 ACP         0.0785
     42 HO2'       -0.1608    0.7921    2.1351 H         1 ACP         0.4275
     43 H1'        -0.1474    2.7798   -0.6651 H         1 ACP         0.1009
     44 H8          2.4442    0.9470   -2.6763 H         1 ACP         0.1067
     45 HN61       -0.2955   -0.1901   -6.4713 H         1 ACP         0.4213
     46 HN62       -1.9987   -0.1045   -6.8334 H         1 ACP         0.4213
     47 H2         -3.9335    1.6716   -3.0534 H         1 ACP         0.0365
@<TRIPOS>BOND
     1    1    2 2
     2    1    3 1
     3    1    4 1
     4    1    8 1
     5    3   32 1
     6    4   33 1
     7    5    6 2
     8    5    7 1
     9    5    8 1
    10    5   12 1
    11    8   34 1
    12    8   35 1
    13    9   10 2
    14    9   11 1
    15    9   12 1
    16    9   13 1
    17   13   14 1
    18   14   15 1
    19   14   36 1
    20   14   37 1
    21   15   16 1
    22   15   17 1
    23   15   38 1
    24   16   21 1
    25   17   18 1
    26   17   19 1
    27   17   39 1
    28   18   40 1
    29   19   20 1
    30   19   21 1
    31   19   41 1
    32   20   42 1
    33   21   22 1
    34   21   43 1
    35   22   23 ar
    36   22   31 ar
    37   23   24 ar
    38   23   44 1
    39   24   25 ar
    40   25   26 ar
    41   25   31 ar
    42   26   27 1
    43   26   28 ar
    44   27   45 1
    45   27   46 1
    46   28   29 ar
    47   29   30 ar
    48   29   47 1
    49   30   31 ar
@<TRIPOS>SUBSTRUCTURE
     1 ACP         1 GROUP 0 A     ****
@<TRIPOS>MOLECULE
[[5-(6-aminopurin-9-yl)-3,4-dihydroxy-tetrahydrofuran-2-yl]methoxy-oxido-phosphoryl]oxy-(phosphonomethyl)phosphinate
   47    49     1     0     0
SMALL
USER_CHARGES

@<TRIPOS>ATOM
      1 PG          5.8799    1.0687   -3.8890 P.3       1 ACP         1.6478
      2 O1G         6.5053    0.3770   -2.7152 O.2       1 ACP        -0.9103
      3 O2G         4.2697    0.9687   -3.9764 O.3       1 ACP        -0.7989
      4 O3G         6.3713    0.5537   -5.3392 O.3       1 ACP        -0.7989
      5 PB          5.6656    4.0141   -2.6207 P.3       1 ACP         1.4947
      6 O1B         4.1626    3.9132   -2.5011 O.co2     1 ACP        -0.8554
      7 O2B         6.3693    5.3282   -2.8686 O.co2     1 ACP        -0.8554
      8 C3B         6.1889    2.8478   -3.9575 C.3       1 ACP        -0.6550
      9 PA          6.2485    3.4955    0.2424 P.3       1 ACP         1.5921
     10 O1A         6.5918    4.9420    0.5255 O.co2     1 ACP        -0.8561
     11 O2A         6.9748    2.3768    0.9573 O.co2     1 ACP        -0.8561
     12 O3A         6.3651    3.2411   -1.3667 O.3       1 ACP        -0.8166
     13 O5'         4.6404    3.2702    0.4379 O.3       1 ACP        -0.5737
     14 C5'         4.0922    1.9801    0.2227 C.3       1 ACP         0.2197
     15 C4'         2.5944    2.0310    0.4653 C.3       1 ACP         0.0944
     16 O4'         1.9327    2.5740   -0.6889 O.3       1 ACP        -0.4017
     17 C3'         1.9685    0.6634    0.6767 C.3       1 ACP         0.0859
     18 O3'         2.1425    0.1975    1.9977 O.3       1 ACP        -0.5941
     19 C2'         0.5176    0.9128    0.3099 C.3       1 ACP         0.0924
     20 O2'        -0.2103    1.4454    1.4152 O.3       1 ACP        -0.5928
     21 C1'         0.6219    1.9765   -0.7844 C.3       1 ACP         0.3967
     22 N9          0.4237    1.4496   -2.1357 N.pl3     1 ACP        -0.6763
     23 C8          1.4026    0.9717   -2.9660 C.ar      1 ACP         0.5586
     24 N7          0.9183    0.5619   -4.1197 N.2       1 ACP        -0.5795
     25 C5         -0.4330    0.7845   -4.0331 C.ar      1 ACP        -0.2116
     26 C6         -1.4794    0.5615   -4.9225 C.ar      1 ACP         0.7185
     27 N6         -1.2378    0.0044   -6.1899 N.pl3     1 ACP        -0.9442
     28 N1         -2.7406    0.8885   -4.5512 N.ar      1 ACP        -0.8040
     29 C2         -2.9113    1.4216   -3.3172 C.ar      1 ACP         0.6560
     30 N3         -1.9824    1.6843   -2.3721 N.ar      1 ACP        -0.7058
     31 C4         -0.7613    1.3370   -2.8054 C.ar      1 ACP         0.5729
     32 HOG2        3.8515    0.0838   -4.0408 H         1 ACP         0.4440
     33 HOG3        6.2299   -0.3858   -5.5828 H         1 ACP         0.4440
     34 H3B1        7.2696    2.9921   -4.0674 H         1 ACP         0.1084
     35 H3B2        5.7220    3.2183   -4.8772 H         1 ACP         0.1084
     36 H5'1        4.3030    1.6732   -0.8066 H         1 ACP         0.0281
     37 H5'2        4.5679    1.2741    0.9106 H         1 ACP         0.0281
     38 H4'         2.3751    2.7029    1.3156 H         1 ACP         0.1082
     39 H3'         2.4336   -0.1217   -0.0015 H         1 ACP         0.0650
     40 HO3'        1.7160   -0.6716    2.0397 H         1 ACP         0.4300
     41 H2'         0.0316    0.0155   -0.0339 H         1 ACP         0.0785
     42 HO2'       -0.1608    0.7921    2.1351 H         1 ACP         0.4275
     43 H1'        -0.1474    2.7798   -0.6651 H         1 ACP         0.1009
     44 H8          2.4442    0.9470   -2.6763 H         1 ACP         0.1067
     45 HN61       -0.2955   -0.1901   -6.4713 H         1 ACP         0.4213
     46 HN62       -1.9987   -0.1045   -6.8334 H         1 ACP         0.4213
     47 H2         -3.9335    1.6716   -3.0534 H         1 ACP         0.0365
@<TRIPOS>BOND
     1    1    2 2
     2    1    3 1
     3    1    4 1
     4    1    8 1
     5    3   32 1
     6    4   33 1
     7    5    6 2
     8    5    7 1
     9    5    8 1
    10    5   12 1
    11    8   34 1
    12    8   35 1
    13    9   10 2
    14    9   11 1
    15    9   12 1
    16    9   13 1
    17   13   14 1
    18   14   15 1
    19   14   36 1
    20   14   37 1
    21   15   16 1
    22   15   17 1
    23   15   38 1
    24   16   21 1
    25   17   18 1
    26   17   19 1
    27   17   39 1
    28   18   40 1
    29   19   20 1
    30   19   21 1
    31   19   41 1
    32   20   42 1
    33   21   22 1
    34   21   43 1
    35   22   23 ar
    36   22   31 ar
    37   23   24 ar
    38   23   44 1
    39   24   25 ar
    40   25   26 ar
    41   25   31 ar
    42   26   27 1
    43   26   28 ar
    44   27   45 1
    45   27   46 1
    46   28   29 ar
    47   29   30 ar
    48   29   47 1
    49   30   31 ar
@<TRIPOS>SUBSTRUCTURE
     1 ACP         1 GROUP 0 A     ****
@<TRIPOS>MOLECULE
[[5-(6-aminopurin-9-yl)-3,4-dihydroxy-tetrahydrofuran-2-yl]methoxy-oxido-phosphoryl]oxy-(phosphonomethyl)phosphinate
   47    49     1     0     0
SMALL
USER_CHARGES

@<TRIPOS>ATOM
      1 PG         -2.0349    8.4352    2.9936 P.3       1 ACP         1.6478
      2 O1G        -1.0831    7.8744    4.0070 O.2       1 ACP        -0.9103
      3 O2G        -1.3883    9.4643    1.9291 O.3       1 ACP        -0.7989
      4 O3G        -3.2888    9.2539    3.5994 O.3       1 ACP        -0.7989
      5 PB         -1.8696    6.0505    0.8451 P.3       1 ACP         1.4947
      6 O1B        -1.0946    6.9075   -0.1288 O.co2     1 ACP        -0.8554
      7 O2B        -2.8199    4.9678    0.3886 O.co2     1 ACP        -0.8554
      8 C3B        -2.8227    7.1934    1.9433 C.3       1 ACP        -0.6550
      9 PA         -1.1366    4.4807    3.2544 P.3       1 ACP         1.5921
     10 O1A        -2.2266    5.1034    4.0998 O.co2     1 ACP        -0.8561
     11 O2A         0.1933    4.1013    3.8686 O.co2     1 ACP        -0.8561
     12 O3A        -0.8547    5.4545    1.9738 O.3       1 ACP        -0.8166
     13 O5'        -1.7337    3.1724    2.4754 O.3       1 ACP        -0.5737
     14 C5'        -0.8811    2.4285    1.6206 C.3       1 ACP         0.2197
     15 C4'        -0.1994    1.3333    2.4288 C.3       1 ACP         0.0944
     16 O4'        -1.1285    0.2356    2.5840 O.3       1 ACP        -0.4017
     17 C3'         1.0324    0.7610    1.7344 C.3       1 ACP         0.0859
     18 O3'         1.9175    0.2377    2.7247 O.3       1 ACP        -0.5941
     19 C2'         0.4468   -0.3802    0.9263 C.3       1 ACP         0.0924
     20 O2'         1.3993   -1.3703    0.5961 O.3       1 ACP        -0.5928
     21 C1'        -0.6159   -0.9100    1.8769 C.3       1 ACP         0.3967
     22 N9         -1.7127   -1.6108    1.2130 N.pl3     1 ACP        -0.6763
     23 C8         -2.8641   -1.0399    0.7392 C.ar      1 ACP         0.5586
     24 N7         -3.6659   -1.9257    0.1858 N.2       1 ACP        -0.5795
     25 C5         -3.0053   -3.1223    0.3069 C.ar      1 ACP        -0.2116
     26 C6         -3.3321   -4.4178   -0.0813 C.ar      1 ACP         0.7185
     27 N6         -4.5476   -4.6866   -0.7335 N.pl3     1 ACP        -0.9442
     28 N1         -2.4608   -5.4225    0.1773 N.ar      1 ACP        -0.8040
     29 C2         -1.3053   -5.1020    0.8081 C.ar      1 ACP         0.6560
     30 N3         -0.8788   -3.8921    1.2315 N.ar      1 ACP        -0.7058
     31 C4         -1.7870   -2.9477    0.9438 C.ar      1 ACP         0.5729
     32 HOG2       -0.9663   10.2860    2.2589 H         1 ACP         0.4440
     33 HOG3       -3.1170   10.0478    4.1491 H         1 ACP         0.4440
     34 H3B1       -3.4243    6.5456    2.5909 H         1 ACP         0.1084
     35 H3B2       -3.5207    7.7259    1.2872 H         1 ACP         0.1084
     36 H5'1       -1.4802    1.9929    0.8148 H         1 ACP         0.0281
     37 H5'2       -0.1370    3.1043    1.1873 H         1 ACP         0.0281
     38 H4'         0.0403    1.7078    3.4343 H         1 ACP         0.1082
     39 H3'         1.5906    1.4859    1.1353 H         1 ACP         0.0650
     40 HO3'        2.1521    0.9800    3.3017 H         1 ACP         0.4300
     41 H2'        -0.0017    0.0018    0.0005 H         1 ACP         0.0785
     42 HO2'        2.0953   -0.9375    0.0709 H         1 ACP         0.4275
     43 H1'        -0.1998   -1.6319    2.6178 H         1 ACP         0.1009
     44 H8         -3.0609    0.0200    0.8250 H         1 ACP         0.1067
     45 HN61       -5.2046   -3.9433   -0.8775 H         1 ACP         0.4213
     46 HN62       -4.7849   -5.6332   -0.9625 H         1 ACP         0.4213
     47 H2         -0.6318   -5.9307    0.9993 H         1 ACP         0.0365
@<TRIPOS>BOND
     1    1    2 2
     2    1    3 1
     3    1    4 1
     4    1    8 1
     5    3   32 1
     6    4   33 1
     7    5    6 2
     8    5    7 1
     9    5    8 1
    10    5   12 1
    11    8   34 1
    12    8   35 1
    13    9   10 2
    14    9   11 1
    15    9   12 1
    16    9   13 1
    17   13   14 1
    18   14   15 1
    19   14   36 1
    20   14   37 1
    21   15   16 1
    22   15   17 1
    23   15   38 1
    24   16   21 1
    25   17   18 1
    26   17   19 1
    27   17   39 1
    28   18   40 1
    29   19   20 1
    30   19   21 1
    31   19   41 1
    32   20   42 1
    33   21   22 1
    34   21   43 1
    35   22   23 ar
    36   22   31 ar
    37   23   24 ar
    38   23   44 1
    39   24   25 ar
    40   25   26 ar
    41   25   31 ar
    42   26   27 1
    43   26   28 ar
    44   27   45 1
    45   27   46 1
    46   28   29 ar
    47   29   30 ar
    48   29   47 1
    49   30   31 ar
@<TRIPOS>SUBSTRUCTURE
     1 ACP         1 GROUP 0 A     ****
@<TRIPOS>MOLECULE
[[5-(6-aminopurin-9-yl)-3,4-dihydroxy-tetrahydrofuran-2-yl]methoxy-oxido-phosphoryl]oxy-(phosphonomethyl)phosphinate
   47    49     1     0     0
SMALL
USER_CHARGES

@<TRIPOS>ATOM
      1 PG         -5.3743    6.7699    1.1118 P.3       1 ACP         1.6478
      2 O1G        -4.0685    7.4470    1.4011 O.2       1 ACP        -0.9103
      3 O2G        -5.9243    6.9392   -0.3979 O.3       1 ACP        -0.7989
      4 O3G        -6.6190    7.2464    2.0247 O.3       1 ACP        -0.7989
      5 PB         -4.2277    3.8513    0.4069 P.3       1 ACP         1.4947
      6 O1B        -4.5486    4.0191   -1.0602 O.co2     1 ACP        -0.8554
      7 O2B        -4.2634    2.5050    1.0922 O.co2     1 ACP        -0.8554
      8 C3B        -5.3535    4.9783    1.3468 C.3       1 ACP        -0.6550
      9 PA         -2.0037    4.7529    2.1525 P.3       1 ACP         1.5921
     10 O1A        -2.9381    5.3267    3.1957 O.co2     1 ACP        -0.8561
     11 O2A        -0.6728    5.4124    1.8637 O.co2     1 ACP        -0.8561
     12 O3A        -2.8235    4.6072    0.7474 O.3       1 ACP        -0.8166
     13 O5'        -1.7337    3.1724    2.4754 O.3       1 ACP        -0.5737
     14 C5'        -0.8811    2.4285    1.6206 C.3       1 ACP         0.2197
     15 C4'        -0.1994    1.3333    2.4288 C.3       1 ACP         0.0944
     16 O4'        -1.1285    0.2356    2.5840 O.3       1 ACP        -0.4017
     17 C3'         1.0324    0.7610    1.7344 C.3       1 ACP         0.0859
     18 O3'         1.9175    0.2377    2.7247 O.3       1 ACP        -0.5941
     19 C2'         0.4468   -0.3802    0.9263 C.3       1 ACP         0.0924
     20 O2'         1.3993   -1.3703    0.5961 O.3       1 ACP        -0.5928
     21 C1'        -0.6159   -0.9100    1.8769 C.3       1 ACP         0.3967
     22 N9         -1.7127   -1.6108    1.2130 N.pl3     1 ACP        -0.6763
     23 C8         -2.0877   -2.9101    1.4304 C.ar      1 ACP         0.5586
     24 N7         -3.1152   -3.2613    0.6857 N.2       1 ACP        -0.5795
     25 C5         -3.4186   -2.1409   -0.0462 C.ar      1 ACP        -0.2116
     26 C6         -4.3953   -1.8809   -1.0023 C.ar      1 ACP         0.7185
     27 N6         -5.3118   -2.8767   -1.3812 N.pl3     1 ACP        -0.9442
     28 N1         -4.4538   -0.6507   -1.5667 N.ar      1 ACP        -0.8040
     29 C2         -3.5442    0.2679   -1.1609 C.ar      1 ACP         0.6560
     30 N3         -2.5561    0.1361   -0.2491 N.ar      1 ACP        -0.7058
     31 C4         -2.5568   -1.1019    0.2674 C.ar      1 ACP         0.5729
     32 HOG2       -6.1056    7.8406   -0.7392 H         1 ACP         0.4440
     33 HOG3       -6.8915    8.1883    2.0024 H         1 ACP         0.4440
     34 H3B1       -5.1458    4.7857    2.4054 H         1 ACP         0.1084
     35 H3B2       -6.3697    4.6182    1.1500 H         1 ACP         0.1084
     36 H5'1       -1.4802    1.9929    0.8148 H         1 ACP         0.0281
     37 H5'2       -0.1370    3.1043    1.1873 H         1 ACP         0.0281
     38 H4'         0.0403    1.7078    3.4343 H         1 ACP         0.1082
     39 H3'         1.5906    1.4859    1.1353 H         1 ACP         0.0650
     40 HO3'        2.1521    0.9800    3.3017 H         1 ACP         0.4300
     41 H2'        -0.0017    0.0018    0.0005 H         1 ACP         0.0785
     42 HO2'        2.0953   -0.9375    0.0709 H         1 ACP         0.4275
     43 H1'        -0.1998   -1.6319    2.6178 H         1 ACP         0.1009
     44 H8         -1.5778   -3.5473    2.1399 H         1 ACP         0.1067
     45 HN61       -5.2294   -3.7965   -0.9914 H         1 ACP         0.4213
     46 HN62       -5.9774   -2.6837   -2.1055 H         1 ACP         0.4213
     47 H2         -3.6201    1.2414   -1.6336 H         1 ACP         0.0365
@<TRIPOS>BOND
     1    1    2 2
     2    1    3 1
     3    1    4 1
     4    1    8 1
     5    3   32 1
     6    4   33 1
     7    5    6 2
     8    5    7 1
     9    5    8 1
    10    5   12 1
    11    8   34 1
    12    8   35 1
    13    9   10 2
    14    9   11 1
    15    9   12 1
    16    9   13 1
    17   13   14 1
    18   14   15 1
    19   14   36 1
    20   14   37 1
    21   15   16 1
    22   15   17 1
    23   15   38 1
    24   16   21 1
    25   17   18 1
    26   17   19 1
    27   17   39 1
    28   18   40 1
    29   19   20 1
    30   19   21 1
    31   19   41 1
    32   20   42 1
    33   21   22 1
    34   21   43 1
    35   22   23 ar
    36   22   31 ar
    37   23   24 ar
    38   23   44 1
    39   24   25 ar
    40   25   26 ar
    41   25   31 ar
    42   26   27 1
    43   26   28 ar
    44   27   45 1
    45   27   46 1
    46   28   29 ar
    47   29   30 ar
    48   29   47 1
    49   30   31 ar
@<TRIPOS>SUBSTRUCTURE
     1 ACP         1 GROUP 0 A     ****
@<TRIPOS>MOLECULE
[[5-(6-aminopurin-9-yl)-3,4-dihydroxy-tetrahydrofuran-2-yl]methoxy-oxido-phosphoryl]oxy-(phosphonomethyl)phosphinate
   47    49     1     0     0
SMALL
USER_CHARGES

@<TRIPOS>ATOM
      1 PG          2.7810    1.0748   -2.3291 P.3       1 ACP         1.6478
      2 O1G         4.0413    1.7582   -2.7674 O.2       1 ACP        -0.9103
      3 O2G         2.5403    1.0205   -0.7324 O.3       1 ACP        -0.7989
      4 O3G         2.6335   -0.4671   -2.7877 O.3       1 ACP        -0.7989
      5 PB          0.7901    3.5852   -2.5817 P.3       1 ACP         1.4947
      6 O1B        -0.5283    3.8470   -3.2721 O.co2     1 ACP        -0.8554
      7 O2B         2.0108    4.4433   -2.8209 O.co2     1 ACP        -0.8554
      8 C3B         1.2648    1.8362   -2.9511 C.3       1 ACP        -0.6550
      9 PA         -0.0885    4.4445    0.1193 P.3       1 ACP         1.5921
     10 O1A        -1.5458    4.6741   -0.2187 O.co2     1 ACP        -0.8561
     11 O2A         0.8596    5.6133    0.2768 O.co2     1 ACP        -0.8561
     12 O3A         0.5414    3.4131   -0.9793 O.3       1 ACP        -0.8166
     13 O5'         0.0182    3.5132    1.4596 O.3       1 ACP        -0.5737
     14 C5'        -0.8811    2.4285    1.6206 C.3       1 ACP         0.2197
     15 C4'        -0.1994    1.3333    2.4288 C.3       1 ACP         0.0944
     16 O4'        -1.1285    0.2356    2.5840 O.3       1 ACP        -0.4017
     17 C3'         1.0324    0.7610    1.7344 C.3       1 ACP         0.0859
     18 O3'         1.9175    0.2377    2.7247 O.3       1 ACP        -0.5941
     19 C2'         0.4468   -0.3802    0.9263 C.3       1 ACP         0.0924
     20 O2'         1.3993   -1.3703    0.5961 O.3       1 ACP        -0.5928
     21 C1'        -0.6159   -0.9100    1.8769 C.3       1 ACP         0.3967
     22 N9         -1.7127   -1.6108    1.2130 N.pl3     1 ACP        -0.6763
     23 C8         -1.7712   -2.9546    0.9544 C.ar      1 ACP         0.5586
     24 N7         -2.8883   -3.2948    0.3462 N.2       1 ACP        -0.5795
     25 C5         -3.5834   -2.1202    0.2043 C.ar      1 ACP        -0.2116
     26 C6         -4.8225   -1.8251   -0.3554 C.ar      1 ACP         0.7185
     27 N6         -5.6154   -2.8394   -0.9189 N.pl3     1 ACP        -0.9442
     28 N1         -5.2589   -0.5425   -0.3507 N.ar      1 ACP        -0.8040
     29 C2         -4.4510    0.3913    0.2069 C.ar      1 ACP         0.6560
     30 N3         -3.2368    0.2296    0.7767 N.ar      1 ACP        -0.7058
     31 C4         -2.8684   -1.0596    0.7376 C.ar      1 ACP         0.5729
     32 HOG2        3.2011    0.5664   -0.1675 H         1 ACP         0.4440
     33 HOG3        3.3067   -1.1169   -2.4935 H         1 ACP         0.4440
     34 H3B1        1.2806    1.7602   -4.0442 H         1 ACP         0.1084
     35 H3B2        0.4298    1.2192   -2.6000 H         1 ACP         0.1084
     36 H5'1       -1.7769    2.7852    2.1386 H         1 ACP         0.0281
     37 H5'2       -1.1652    2.0544    0.6320 H         1 ACP         0.0281
     38 H4'         0.0403    1.7078    3.4343 H         1 ACP         0.1082
     39 H3'         1.5906    1.4859    1.1353 H         1 ACP         0.0650
     40 HO3'        2.6839   -0.1150    2.2479 H         1 ACP         0.4300
     41 H2'        -0.0017    0.0018    0.0005 H         1 ACP         0.0785
     42 HO2'        0.9369   -2.0558    0.0825 H         1 ACP         0.4275
     43 H1'        -0.1998   -1.6319    2.6178 H         1 ACP         0.1009
     44 H8         -0.9745   -3.6312    1.2318 H         1 ACP         0.1067
     45 HN61       -5.2619   -3.7766   -0.9586 H         1 ACP         0.4213
     46 HN62       -6.4834   -2.5990   -1.3590 H         1 ACP         0.4213
     47 H2         -4.8317    1.4071    0.1930 H         1 ACP         0.0365
@<TRIPOS>BOND
     1    1    2 2
     2    1    3 1
     3    1    4 1
     4    1    8 1
     5    3   32 1
     6    4   33 1
     7    5    6 2
     8    5    7 1
     9    5    8 1
    10    5   12 1
    11    8   34 1
    12    8   35 1
    13    9   10 2
    14    9   11 1
    15    9   12 1
    16    9   13 1
    17   13   14 1
    18   14   15 1
    19   14   36 1
    20   14   37 1
    21   15   16 1
    22   15   17 1
    23   15   38 1
    24   16   21 1
    25   17   18 1
    26   17   19 1
    27   17   39 1
    28   18   40 1
    29   19   20 1
    30   19   21 1
    31   19   41 1
    32   20   42 1
    33   21   22 1
    34   21   43 1
    35   22   23 ar
    36   22   31 ar
    37   23   24 ar
    38   23   44 1
    39   24   25 ar
    40   25   26 ar
    41   25   31 ar
    42   26   27 1
    43   26   28 ar
    44   27   45 1
    45   27   46 1
    46   28   29 ar
    47   29   30 ar
    48   29   47 1
    49   30   31 ar
@<TRIPOS>SUBSTRUCTURE
     1 ACP         1 GROUP 0 A     ****
@<TRIPOS>MOLECULE
[[5-(6-aminopurin-9-yl)-3,4-dihydroxy-tetrahydrofuran-2-yl]methoxy-oxido-phosphoryl]oxy-(phosphonomethyl)phosphinate
   47    49     1     0     0
SMALL
USER_CHARGES

@<TRIPOS>ATOM
      1 PG          8.9732    4.6072    1.3817 P.3       1 ACP         1.6478
      2 O1G         7.5419    4.9101    1.7090 O.2       1 ACP        -0.9103
      3 O2G         9.7329    3.6351    2.4248 O.3       1 ACP        -0.7989
      4 O3G         9.9477    5.8917    1.2812 O.3       1 ACP        -0.7989
      5 PB          8.4714    2.1372   -0.6126 P.3       1 ACP         1.4947
      6 O1B         9.0017    1.1441    0.3954 O.co2     1 ACP        -0.8554
      7 O2B         8.6181    1.9315   -2.1024 O.co2     1 ACP        -0.8554
      8 C3B         9.2160    3.7809   -0.2070 C.3       1 ACP        -0.6550
      9 PA          5.8654    3.5047   -0.9930 P.3       1 ACP         1.5921
     10 O1A         5.5593    2.9518   -2.3681 O.co2     1 ACP        -0.8561
     11 O2A         6.3578    4.9258   -0.8257 O.co2     1 ACP        -0.8561
     12 O3A         6.9226    2.5019   -0.2553 O.3       1 ACP        -0.8166
     13 O5'         4.5669    3.2941   -0.0211 O.3       1 ACP        -0.5737
     14 C5'         4.0922    1.9801    0.2227 C.3       1 ACP         0.2197
     15 C4'         2.5944    2.0310    0.4653 C.3       1 ACP         0.0944
     16 O4'         1.9327    2.5740   -0.6889 O.3       1 ACP        -0.4017
     17 C3'         1.9685    0.6634    0.6767 C.3       1 ACP         0.0859
     18 O3'         2.1425    0.1975    1.9977 O.3       1 ACP        -0.5941
     19 C2'         0.5176    0.9128    0.3099 C.3       1 ACP         0.0924
     20 O2'        -0.2103    1.4454    1.4152 O.3       1 ACP        -0.5928
     21 C1'         0.6219    1.9765   -0.7844 C.3       1 ACP         0.3967
     22 N9          0.4237    1.4496   -2.1357 N.pl3     1 ACP        -0.6763
     23 C8          1.4026    0.9717   -2.9660 C.ar      1 ACP         0.5586
     24 N7          0.9183    0.5619   -4.1197 N.2       1 ACP        -0.5795
     25 C5         -0.4330    0.7845   -4.0331 C.ar      1 ACP        -0.2116
     26 C6         -1.4794    0.5615   -4.9225 C.ar      1 ACP         0.7185
     27 N6         -1.2378    0.0044   -6.1899 N.pl3     1 ACP        -0.9442
     28 N1         -2.7406    0.8885   -4.5512 N.ar      1 ACP        -0.8040
     29 C2         -2.9113    1.4216   -3.3172 C.ar      1 ACP         0.6560
     30 N3         -1.9824    1.6843   -2.3721 N.ar      1 ACP        -0.7058
     31 C4         -0.7613    1.3370   -2.8054 C.ar      1 ACP         0.5729
     32 HOG2        9.8141    3.9143    3.3616 H         1 ACP         0.4440
     33 HOG3       10.0569    6.4679    2.0673 H         1 ACP         0.4440
     34 H3B1        8.8686    4.4628   -0.9913 H         1 ACP         0.1084
     35 H3B2       10.2969    3.6614   -0.3433 H         1 ACP         0.1084
     36 H5'1        4.3181    1.3551   -0.6470 H         1 ACP         0.0281
     37 H5'2        4.6085    1.5740    1.0982 H         1 ACP         0.0281
     38 H4'         2.3751    2.7029    1.3156 H         1 ACP         0.1082
     39 H3'         2.4336   -0.1217   -0.0015 H         1 ACP         0.0650
     40 HO3'        1.7160   -0.6716    2.0397 H         1 ACP         0.4300
     41 H2'         0.0316    0.0155   -0.0339 H         1 ACP         0.0785
     42 HO2'       -0.1608    0.7921    2.1351 H         1 ACP         0.4275
     43 H1'        -0.1474    2.7798   -0.6651 H         1 ACP         0.1009
     44 H8          2.4442    0.9470   -2.6763 H         1 ACP         0.1067
     45 HN61       -0.2955   -0.1901   -6.4713 H         1 ACP         0.4213
     46 HN62       -1.9987   -0.1045   -6.8334 H         1 ACP         0.4213
     47 H2         -3.9335    1.6716   -3.0534 H         1 ACP         0.0365
@<TRIPOS>BOND
     1    1    2 2
     2    1    3 1
     3    1    4 1
     4    1    8 1
     5    3   32 1
     6    4   33 1
     7    5    6 2
     8    5    7 1
     9    5    8 1
    10    5   12 1
    11    8   34 1
    12    8   35 1
    13    9   10 2
    14    9   11 1
    15    9   12 1
    16    9   13 1
    17   13   14 1
    18   14   15 1
    19   14   36 1
    20   14   37 1
    21   15   16 1
    22   15   17 1
    23   15   38 1
    24   16   21 1
    25   17   18 1
    26   17   19 1
    27   17   39 1
    28   18   40 1
    29   19   20 1
    30   19   21 1
    31   19   41 1
    32   20   42 1
    33   21   22 1
    34   21   43 1
    35   22   23 ar
    36   22   31 ar
    37   23   24 ar
    38   23   44 1
    39   24   25 ar
    40   25   26 ar
    41   25   31 ar
    42   26   27 1
    43   26   28 ar
    44   27   45 1
    45   27   46 1
    46   28   29 ar
    47   29   30 ar
    48   29   47 1
    49   30   31 ar
@<TRIPOS>SUBSTRUCTURE
     1 ACP         1 GROUP 0 A     ****
@<TRIPOS>MOLECULE
[[5-(6-aminopurin-9-yl)-3,4-dihydroxy-tetrahydrofuran-2-yl]methoxy-oxido-phosphoryl]oxy-(phosphonomethyl)phosphinate
   47    49     1     0     0
SMALL
USER_CHARGES

@<TRIPOS>ATOM
      1 PG         -0.4064    2.5989   -3.0595 P.3       1 ACP         1.6478
      2 O1G        -1.8641    2.5373   -3.4041 O.2       1 ACP        -0.9103
      3 O2G         0.5835    1.8503   -4.0939 O.3       1 ACP        -0.7989
      4 O3G        -0.0059    1.9683   -1.6271 O.3       1 ACP        -0.7989
      5 PB         -0.3599    5.5573   -1.8042 P.3       1 ACP         1.4947
      6 O1B        -1.8216    5.7743   -2.1206 O.co2     1 ACP        -0.8554
      7 O2B         0.6410    6.6894   -1.7966 O.co2     1 ACP        -0.8554
      8 C3B         0.2700    4.2725   -2.9762 C.3       1 ACP        -0.6550
      9 PA         -0.7382    5.0055    1.0868 P.3       1 ACP         1.5921
     10 O1A        -2.2516    5.0177    1.0865 O.co2     1 ACP        -0.8561
     11 O2A         0.0419    6.1870    1.6208 O.co2     1 ACP        -0.8561
     12 O3A        -0.2227    4.6896   -0.4304 O.3       1 ACP        -0.8166
     13 O5'        -0.2059    3.6558    1.8419 O.3       1 ACP        -0.5737
     14 C5'        -0.8811    2.4285    1.6206 C.3       1 ACP         0.2197
     15 C4'        -0.1994    1.3333    2.4288 C.3       1 ACP         0.0944
     16 O4'        -1.1285    0.2356    2.5840 O.3       1 ACP        -0.4017
     17 C3'         1.0324    0.7610    1.7344 C.3       1 ACP         0.0859
     18 O3'         1.9175    0.2377    2.7247 O.3       1 ACP        -0.5941
     19 C2'         0.4468   -0.3802    0.9263 C.3       1 ACP         0.0924
     20 O2'         1.3993   -1.3703    0.5961 O.3       1 ACP        -0.5928
     21 C1'        -0.6159   -0.9100    1.8769 C.3       1 ACP         0.3967
     22 N9         -1.7127   -1.6108    1.2130 N.pl3     1 ACP        -0.6763
     23 C8         -1.7712   -2.9546    0.9544 C.ar      1 ACP         0.5586
     24 N7         -2.8883   -3.2948    0.3462 N.2       1 ACP        -0.5795
     25 C5         -3.5834   -2.1202    0.2043 C.ar      1 ACP        -0.2116
     26 C6         -4.8225   -1.8251   -0.3554 C.ar      1 ACP         0.7185
     27 N6         -5.6154   -2.8394   -0.9189 N.pl3     1 ACP        -0.9442
     28 N1         -5.2589   -0.5425   -0.3507 N.ar      1 ACP        -0.8040
     29 C2         -4.4510    0.3913    0.2069 C.ar      1 ACP         0.6560
     30 N3         -3.2368    0.2296    0.7767 N.ar      1 ACP        -0.7058
     31 C4         -2.8684   -1.0596    0.7376 C.ar      1 ACP         0.5729
     32 HOG2        0.4716    0.8879   -4.2464 H         1 ACP         0.4440
     33 HOG3       -0.1956    1.0216   -1.4550 H         1 ACP         0.4440
     34 H3B1        1.3426    4.1861   -2.7692 H         1 ACP         0.1084
     35 H3B2        0.1720    4.7073   -3.9775 H         1 ACP         0.1084
     36 H5'1       -1.9255    2.5383    1.9294 H         1 ACP         0.0281
     37 H5'2       -0.8472    2.1934    0.5521 H         1 ACP         0.0281
     38 H4'         0.0403    1.7078    3.4343 H         1 ACP         0.1082
     39 H3'         1.5906    1.4859    1.1353 H         1 ACP         0.0650
     40 HO3'        2.6839   -0.1150    2.2479 H         1 ACP         0.4300
     41 H2'        -0.0017    0.0018    0.0005 H         1 ACP         0.0785
     42 HO2'        0.9369   -2.0558    0.0825 H         1 ACP         0.4275
     43 H1'        -0.1998   -1.6319    2.6178 H         1 ACP         0.1009
     44 H8         -0.9745   -3.6312    1.2318 H         1 ACP         0.1067
     45 HN61       -5.2619   -3.7766   -0.9586 H         1 ACP         0.4213
     46 HN62       -6.4834   -2.5990   -1.3590 H         1 ACP         0.4213
     47 H2         -4.8317    1.4071    0.1930 H         1 ACP         0.0365
@<TRIPOS>BOND
     1    1    2 2
     2    1    3 1
     3    1    4 1
     4    1    8 1
     5    3   32 1
     6    4   33 1
     7    5    6 2
     8    5    7 1
     9    5    8 1
    10    5   12 1
    11    8   34 1
    12    8   35 1
    13    9   10 2
    14    9   11 1
    15    9   12 1
    16    9   13 1
    17   13   14 1
    18   14   15 1
    19   14   36 1
    20   14   37 1
    21   15   16 1
    22   15   17 1
    23   15   38 1
    24   16   21 1
    25   17   18 1
    26   17   19 1
    27   17   39 1
    28   18   40 1
    29   19   20 1
    30   19   21 1
    31   19   41 1
    32   20   42 1
    33   21   22 1
    34   21   43 1
    35   22   23 ar
    36   22   31 ar
    37   23   24 ar
    38   23   44 1
    39   24   25 ar
    40   25   26 ar
    41   25   31 ar
    42   26   27 1
    43   26   28 ar
    44   27   45 1
    45   27   46 1
    46   28   29 ar
    47   29   30 ar
    48   29   47 1
    49   30   31 ar
@<TRIPOS>SUBSTRUCTURE
     1 ACP         1 GROUP 0 A     ****
@<TRIPOS>MOLECULE
[[5-(6-aminopurin-9-yl)-3,4-dihydroxy-tetrahydrofuran-2-yl]methoxy-oxido-phosphoryl]oxy-(phosphonomethyl)phosphinate
   47    49     1     0     0
SMALL
USER_CHARGES

@<TRIPOS>ATOM
      1 PG          7.4359    6.4357    2.2165 P.3       1 ACP         1.6478
      2 O1G         6.0281    6.3483    1.7087 O.2       1 ACP        -0.9103
      3 O2G         7.6095    6.2646    3.8136 O.3       1 ACP        -0.7989
      4 O3G         8.2026    7.8214    1.8977 O.3       1 ACP        -0.7989
      5 PB          8.2764    3.3675    1.7586 P.3       1 ACP         1.4947
      6 O1B         8.2766    3.0883    3.2438 O.co2     1 ACP        -0.8554
      7 O2B         9.2050    2.6545    0.8032 O.co2     1 ACP        -0.8554
      8 C3B         8.5508    5.1837    1.5420 C.3       1 ACP        -0.6550
      9 PA          6.1592    3.5244   -0.3148 P.3       1 ACP         1.5921
     10 O1A         6.6744    2.4082   -1.1976 O.co2     1 ACP        -0.8561
     11 O2A         6.3656    4.9722   -0.7036 O.co2     1 ACP        -0.8561
     12 O3A         6.7482    3.3058    1.1928 O.3       1 ACP        -0.8166
     13 O5'         4.5669    3.2941   -0.0211 O.3       1 ACP        -0.5737
     14 C5'         4.0922    1.9801    0.2227 C.3       1 ACP         0.2197
     15 C4'         2.5944    2.0310    0.4653 C.3       1 ACP         0.0944
     16 O4'         1.9327    2.5740   -0.6889 O.3       1 ACP        -0.4017
     17 C3'         1.9685    0.6634    0.6767 C.3       1 ACP         0.0859
     18 O3'         2.1425    0.1975    1.9977 O.3       1 ACP        -0.5941
     19 C2'         0.5176    0.9128    0.3099 C.3       1 ACP         0.0924
     20 O2'        -0.2103    1.4454    1.4152 O.3       1 ACP        -0.5928
     21 C1'         0.6219    1.9765   -0.7844 C.3       1 ACP         0.3967
     22 N9          0.4237    1.4496   -2.1357 N.pl3     1 ACP        -0.6763
     23 C8         -0.7736    1.3475   -2.7932 C.ar      1 ACP         0.5586
     24 N7         -0.6356    0.8373   -3.9991 N.2       1 ACP        -0.5795
     25 C5          0.7095    0.5981   -4.1281 C.ar      1 ACP        -0.2116
     26 C6          1.4733    0.0704   -5.1643 C.ar      1 ACP         0.7185
     27 N6          0.8693   -0.3355   -6.3666 N.pl3     1 ACP        -0.9442
     28 N1          2.8130   -0.0482   -5.0009 N.ar      1 ACP        -0.8040
     29 C2          3.3380    0.3602   -3.8204 C.ar      1 ACP         0.6560
     30 N3          2.7052    0.8841   -2.7480 N.ar      1 ACP        -0.7058
     31 C4          1.3867    0.9726   -2.9785 C.ar      1 ACP         0.5729
     32 HOG2        7.1593    6.8990    4.4110 H         1 ACP         0.4440
     33 HOG3        7.8303    8.6607    2.2428 H         1 ACP         0.4440
     34 H3B1        8.6135    5.3447    0.4599 H         1 ACP         0.1084
     35 H3B2        9.5461    5.3869    1.9534 H         1 ACP         0.1084
     36 H5'1        4.3181    1.3551   -0.6470 H         1 ACP         0.0281
     37 H5'2        4.6085    1.5740    1.0982 H         1 ACP         0.0281
     38 H4'         2.3751    2.7029    1.3156 H         1 ACP         0.1082
     39 H3'         2.4336   -0.1217   -0.0015 H         1 ACP         0.0650
     40 HO3'        1.7160   -0.6716    2.0397 H         1 ACP         0.4300
     41 H2'         0.0316    0.0155   -0.0339 H         1 ACP         0.0785
     42 HO2'       -0.1608    0.7921    2.1351 H         1 ACP         0.4275
     43 H1'        -0.1474    2.7798   -0.6651 H         1 ACP         0.1009
     44 H8         -1.7070    1.6599   -2.3451 H         1 ACP         0.1067
     45 HN61       -0.1277   -0.2866   -6.4583 H         1 ACP         0.4213
     46 HN62        1.4308   -0.7566   -7.0823 H         1 ACP         0.4213
     47 H2          4.4130    0.2505   -3.7241 H         1 ACP         0.0365
@<TRIPOS>BOND
     1    1    2 2
     2    1    3 1
     3    1    4 1
     4    1    8 1
     5    3   32 1
     6    4   33 1
     7    5    6 2
     8    5    7 1
     9    5    8 1
    10    5   12 1
    11    8   34 1
    12    8   35 1
    13    9   10 2
    14    9   11 1
    15    9   12 1
    16    9   13 1
    17   13   14 1
    18   14   15 1
    19   14   36 1
    20   14   37 1
    21   15   16 1
    22   15   17 1
    23   15   38 1
    24   16   21 1
    25   17   18 1
    26   17   19 1
    27   17   39 1
    28   18   40 1
    29   19   20 1
    30   19   21 1
    31   19   41 1
    32   20   42 1
    33   21   22 1
    34   21   43 1
    35   22   23 ar
    36   22   31 ar
    37   23   24 ar
    38   23   44 1
    39   24   25 ar
    40   25   26 ar
    41   25   31 ar
    42   26   27 1
    43   26   28 ar
    44   27   45 1
    45   27   46 1
    46   28   29 ar
    47   29   30 ar
    48   29   47 1
    49   30   31 ar
@<TRIPOS>SUBSTRUCTURE
     1 ACP         1 GROUP 0 A     ****
@<TRIPOS>MOLECULE
[[5-(6-aminopurin-9-yl)-3,4-dihydroxy-tetrahydrofuran-2-yl]methoxy-oxido-phosphoryl]oxy-(phosphonomethyl)phosphinate
   47    49     1     0     0
SMALL
USER_CHARGES

@<TRIPOS>ATOM
      1 PG          0.9649    7.5122   -0.7782 P.3       1 ACP         1.6478
      2 O1G         1.6360    6.4569    0.0484 O.2       1 ACP        -0.9103
      3 O2G         1.0679    7.3106   -2.3779 O.3       1 ACP        -0.7989
      4 O3G         1.5039    9.0179   -0.5500 O.3       1 ACP        -0.7989
      5 PB         -2.0014    6.2748   -0.7755 P.3       1 ACP         1.4947
      6 O1B        -1.9011    5.8886   -2.2330 O.co2     1 ACP        -0.8554
      7 O2B        -3.3118    6.6654   -0.1323 O.co2     1 ACP        -0.8554
      8 C3B        -0.8131    7.6638   -0.4933 C.3       1 ACP        -0.6550
      9 PA         -1.0481    5.0552    1.7563 P.3       1 ACP         1.5921
     10 O1A        -2.4051    4.8656    2.3989 O.co2     1 ACP        -0.8561
     11 O2A        -0.1393    6.1836    2.1932 O.co2     1 ACP        -0.8561
     12 O3A        -1.2504    5.1524    0.1385 O.3       1 ACP        -0.8166
     13 O5'        -0.2059    3.6558    1.8419 O.3       1 ACP        -0.5737
     14 C5'        -0.8811    2.4285    1.6206 C.3       1 ACP         0.2197
     15 C4'        -0.1994    1.3333    2.4288 C.3       1 ACP         0.0944
     16 O4'        -1.1285    0.2356    2.5840 O.3       1 ACP        -0.4017
     17 C3'         1.0324    0.7610    1.7344 C.3       1 ACP         0.0859
     18 O3'         1.9175    0.2377    2.7247 O.3       1 ACP        -0.5941
     19 C2'         0.4468   -0.3802    0.9263 C.3       1 ACP         0.0924
     20 O2'         1.3993   -1.3703    0.5961 O.3       1 ACP        -0.5928
     21 C1'        -0.6159   -0.9100    1.8769 C.3       1 ACP         0.3967
     22 N9         -1.7127   -1.6108    1.2130 N.pl3     1 ACP        -0.6763
     23 C8         -1.7712   -2.9546    0.9544 C.ar      1 ACP         0.5586
     24 N7         -2.8883   -3.2948    0.3462 N.2       1 ACP        -0.5795
     25 C5         -3.5834   -2.1202    0.2043 C.ar      1 ACP        -0.2116
     26 C6         -4.8225   -1.8251   -0.3554 C.ar      1 ACP         0.7185
     27 N6         -5.6154   -2.8394   -0.9189 N.pl3     1 ACP        -0.9442
     28 N1         -5.2589   -0.5425   -0.3507 N.ar      1 ACP        -0.8040
     29 C2         -4.4510    0.3913    0.2069 C.ar      1 ACP         0.6560
     30 N3         -3.2368    0.2296    0.7767 N.ar      1 ACP        -0.7058
     31 C4         -2.8684   -1.0596    0.7376 C.ar      1 ACP         0.5729
     32 HOG2        1.9541    7.2851   -2.7974 H         1 ACP         0.4440
     33 HOG3        2.4475    9.2171   -0.7287 H         1 ACP         0.4440
     34 H3B1       -0.9566    7.9663    0.5501 H         1 ACP         0.1084
     35 H3B2       -1.1675    8.4920   -1.1175 H         1 ACP         0.1084
     36 H5'1       -1.9255    2.5383    1.9294 H         1 ACP         0.0281
     37 H5'2       -0.8472    2.1934    0.5521 H         1 ACP         0.0281
     38 H4'         0.0403    1.7078    3.4343 H         1 ACP         0.1082
     39 H3'         1.5906    1.4859    1.1353 H         1 ACP         0.0650
     40 HO3'        2.6839   -0.1150    2.2479 H         1 ACP         0.4300
     41 H2'        -0.0017    0.0018    0.0005 H         1 ACP         0.0785
     42 HO2'        2.0953   -0.9375    0.0709 H         1 ACP         0.4275
     43 H1'        -0.1998   -1.6319    2.6178 H         1 ACP         0.1009
     44 H8         -0.9745   -3.6312    1.2318 H         1 ACP         0.1067
     45 HN61       -5.2619   -3.7766   -0.9586 H         1 ACP         0.4213
     46 HN62       -6.4834   -2.5990   -1.3590 H         1 ACP         0.4213
     47 H2         -4.8317    1.4071    0.1930 H         1 ACP         0.0365
@<TRIPOS>BOND
     1    1    2 2
     2    1    3 1
     3    1    4 1
     4    1    8 1
     5    3   32 1
     6    4   33 1
     7    5    6 2
     8    5    7 1
     9    5    8 1
    10    5   12 1
    11    8   34 1
    12    8   35 1
    13    9   10 2
    14    9   11 1
    15    9   12 1
    16    9   13 1
    17   13   14 1
    18   14   15 1
    19   14   36 1
    20   14   37 1
    21   15   16 1
    22   15   17 1
    23   15   38 1
    24   16   21 1
    25   17   18 1
    26   17   19 1
    27   17   39 1
    28   18   40 1
    29   19   20 1
    30   19   21 1
    31   19   41 1
    32   20   42 1
    33   21   22 1
    34   21   43 1
    35   22   23 ar
    36   22   31 ar
    37   23   24 ar
    38   23   44 1
    39   24   25 ar
    40   25   26 ar
    41   25   31 ar
    42   26   27 1
    43   26   28 ar
    44   27   45 1
    45   27   46 1
    46   28   29 ar
    47   29   30 ar
    48   29   47 1
    49   30   31 ar
@<TRIPOS>SUBSTRUCTURE
     1 ACP         1 GROUP 0 A     ****
@<TRIPOS>MOLECULE
[[5-(6-aminopurin-9-yl)-3,4-dihydroxy-tetrahydrofuran-2-yl]methoxy-oxido-phosphoryl]oxy-(phosphonomethyl)phosphinate
   47    49     1     0     0
SMALL
USER_CHARGES

@<TRIPOS>ATOM
      1 PG          6.9474   -0.1396    3.3069 P.3       1 ACP         1.6478
      2 O1G         7.5622   -1.1230    2.3571 O.2       1 ACP        -0.9103
      3 O2G         6.7354   -0.6730    4.8172 O.3       1 ACP        -0.7989
      4 O3G         5.4857    0.4066    2.8887 O.3       1 ACP        -0.7989
      5 PB          8.3105    2.5291    2.1451 P.3       1 ACP         1.4947
      6 O1B         9.1116    1.7449    1.1317 O.co2     1 ACP        -0.8554
      7 O2B         8.8208    3.8120    2.7594 O.co2     1 ACP        -0.8554
      8 C3B         7.9042    1.3765    3.5334 C.3       1 ACP        -0.6550
      9 PA          6.2485    3.4955    0.2424 P.3       1 ACP         1.5921
     10 O1A         6.7225    2.7149   -0.9645 O.co2     1 ACP        -0.8561
     11 O2A         6.5390    4.9755    0.3658 O.co2     1 ACP        -0.8561
     12 O3A         6.7934    2.7484    1.5887 O.3       1 ACP        -0.8166
     13 O5'         4.6404    3.2702    0.4379 O.3       1 ACP        -0.5737
     14 C5'         4.0922    1.9801    0.2227 C.3       1 ACP         0.2197
     15 C4'         2.5944    2.0310    0.4653 C.3       1 ACP         0.0944
     16 O4'         1.9327    2.5740   -0.6889 O.3       1 ACP        -0.4017
     17 C3'         1.9685    0.6634    0.6767 C.3       1 ACP         0.0859
     18 O3'         2.1425    0.1975    1.9977 O.3       1 ACP        -0.5941
     19 C2'         0.5176    0.9128    0.3099 C.3       1 ACP         0.0924
     20 O2'        -0.2103    1.4454    1.4152 O.3       1 ACP        -0.5928
     21 C1'         0.6219    1.9765   -0.7844 C.3       1 ACP         0.3967
     22 N9          0.4237    1.4496   -2.1357 N.pl3     1 ACP        -0.6763
     23 C8          1.4026    0.9717   -2.9660 C.ar      1 ACP         0.5586
     24 N7          0.9183    0.5619   -4.1197 N.2       1 ACP        -0.5795
     25 C5         -0.4330    0.7845   -4.0331 C.ar      1 ACP        -0.2116
     26 C6         -1.4794    0.5615   -4.9225 C.ar      1 ACP         0.7185
     27 N6         -1.2378    0.0044   -6.1899 N.pl3     1 ACP        -0.9442
     28 N1         -2.7406    0.8885   -4.5512 N.ar      1 ACP        -0.8040
     29 C2         -2.9113    1.4216   -3.3172 C.ar      1 ACP         0.6560
     30 N3         -1.9824    1.6843   -2.3721 N.ar      1 ACP        -0.7058
     31 C4         -0.7613    1.3370   -2.8054 C.ar      1 ACP         0.5729
     32 HOG2        6.1644   -1.4560    4.9687 H         1 ACP         0.4440
     33 HOG3        4.7504   -0.2343    2.7862 H         1 ACP         0.4440
     34 H3B1        7.3846    1.9873    4.2803 H         1 ACP         0.1084
     35 H3B2        8.8656    1.0854    3.9716 H         1 ACP         0.1084
     36 H5'1        4.3030    1.6732   -0.8066 H         1 ACP         0.0281
     37 H5'2        4.5679    1.2741    0.9106 H         1 ACP         0.0281
     38 H4'         2.3751    2.7029    1.3156 H         1 ACP         0.1082
     39 H3'         2.4336   -0.1217   -0.0015 H         1 ACP         0.0650
     40 HO3'        3.0987    0.1465    2.1461 H         1 ACP         0.4300
     41 H2'         0.0316    0.0155   -0.0339 H         1 ACP         0.0785
     42 HO2'       -0.1608    0.7921    2.1351 H         1 ACP         0.4275
     43 H1'        -0.1474    2.7798   -0.6651 H         1 ACP         0.1009
     44 H8          2.4442    0.9470   -2.6763 H         1 ACP         0.1067
     45 HN61       -0.2955   -0.1901   -6.4713 H         1 ACP         0.4213
     46 HN62       -1.9987   -0.1045   -6.8334 H         1 ACP         0.4213
     47 H2         -3.9335    1.6716   -3.0534 H         1 ACP         0.0365
@<TRIPOS>BOND
     1    1    2 2
     2    1    3 1
     3    1    4 1
     4    1    8 1
     5    3   32 1
     6    4   33 1
     7    5    6 2
     8    5    7 1
     9    5    8 1
    10    5   12 1
    11    8   34 1
    12    8   35 1
    13    9   10 2
    14    9   11 1
    15    9   12 1
    16    9   13 1
    17   13   14 1
    18   14   15 1
    19   14   36 1
    20   14   37 1
    21   15   16 1
    22   15   17 1
    23   15   38 1
    24   16   21 1
    25   17   18 1
    26   17   19 1
    27   17   39 1
    28   18   40 1
    29   19   20 1
    30   19   21 1
    31   19   41 1
    32   20   42 1
    33   21   22 1
    34   21   43 1
    35   22   23 ar
    36   22   31 ar
    37   23   24 ar
    38   23   44 1
    39   24   25 ar
    40   25   26 ar
    41   25   31 ar
    42   26   27 1
    43   26   28 ar
    44   27   45 1
    45   27   46 1
    46   28   29 ar
    47   29   30 ar
    48   29   47 1
    49   30   31 ar
@<TRIPOS>SUBSTRUCTURE
     1 ACP         1 GROUP 0 A     ****
@<TRIPOS>MOLECULE
[[5-(6-aminopurin-9-yl)-3,4-dihydroxy-tetrahydrofuran-2-yl]methoxy-oxido-phosphoryl]oxy-(phosphonomethyl)phosphinate
   47    49     1     0     0
SMALL
USER_CHARGES

@<TRIPOS>ATOM
      1 PG          1.9738   -0.6218   -4.5186 P.3       1 ACP         1.6478
      2 O1G         1.4809   -1.9946   -4.1726 O.2       1 ACP        -0.9103
      3 O2G         3.5711   -0.4884   -4.7211 O.3       1 ACP        -0.7989
      4 O3G         1.6306    0.5300   -3.4391 O.3       1 ACP        -0.7989
      5 PB         -0.5052    0.3059   -6.3417 P.3       1 ACP         1.4947
      6 O1B        -1.1785   -1.0403   -6.2082 O.co2     1 ACP        -0.8554
      7 O2B        -0.6488    1.1609   -7.5794 O.co2     1 ACP        -0.8554
      8 C3B         1.3038    0.0448   -6.0589 C.3       1 ACP        -0.6550
      9 PA         -2.2218    1.7171   -4.3750 P.3       1 ACP         1.5921
     10 O1A        -3.0049    0.5102   -3.9053 O.co2     1 ACP        -0.8561
     11 O2A        -2.8420    2.7148   -5.3289 O.co2     1 ACP        -0.8561
     12 O3A        -0.8096    1.2016   -5.0135 O.3       1 ACP        -0.8166
     13 O5'        -1.6520    2.5338   -3.0775 O.3       1 ACP        -0.5737
     14 C5'        -0.7794    1.8744   -2.1748 C.3       1 ACP         0.2197
     15 C4'        -0.9699    2.4597   -0.7819 C.3       1 ACP         0.0944
     16 O4'        -2.1475    1.8640   -0.2014 O.3       1 ACP        -0.4017
     17 C3'         0.1697    2.1347    0.1695 C.3       1 ACP         0.0859
     18 O3'         0.1809    3.0982    1.2223 O.3       1 ACP        -0.5941
     19 C2'        -0.2543    0.7880    0.7187 C.3       1 ACP         0.0924
     20 O2'         0.3606    0.4944    1.9582 O.3       1 ACP        -0.5928
     21 C1'        -1.7682    0.9516    0.8548 C.3       1 ACP         0.3967
     22 N9         -2.5926   -0.2553    0.7436 N.pl3     1 ACP        -0.6763
     23 C8         -3.5599   -0.4866   -0.1983 C.ar      1 ACP         0.5586
     24 N7         -4.1294   -1.6639   -0.0461 N.2       1 ACP        -0.5795
     25 C5         -3.5041   -2.2191    1.0420 C.ar      1 ACP        -0.2116
     26 C6         -3.6604   -3.4390    1.6925 C.ar      1 ACP         0.7185
     27 N6         -4.6108   -4.3735    1.2468 N.pl3     1 ACP        -0.9442
     28 N1         -2.8820   -3.7179    2.7657 N.ar      1 ACP        -0.8040
     29 C2         -1.9837   -2.7784    3.1481 C.ar      1 ACP         0.6560
     30 N3         -1.7408   -1.5668    2.6022 N.ar      1 ACP        -0.7058
     31 C4         -2.5438   -1.3578    1.5483 C.ar      1 ACP         0.5729
     32 HOG2        4.1651   -0.7136   -3.9738 H         1 ACP         0.4440
     33 HOG3        1.9691    0.4388   -2.5231 H         1 ACP         0.4440
     34 H3B1        1.7720    1.0209   -6.2284 H         1 ACP         0.1084
     35 H3B2        1.6405   -0.6155   -6.8662 H         1 ACP         0.1084
     36 H5'1       -1.0116    0.8048   -2.1755 H         1 ACP         0.0281
     37 H5'2        0.2522    2.0163   -2.5121 H         1 ACP         0.0281
     38 H4'        -1.1469    3.5409   -0.8522 H         1 ACP         0.1082
     39 H3'         1.1601    2.1310   -0.2934 H         1 ACP         0.0650
     40 HO3'        0.9173    2.8584    1.8048 H         1 ACP         0.4300
     41 H2'        -0.0024   -0.0091    0.0062 H         1 ACP         0.0785
     42 HO2'        1.3225    0.4909    1.8095 H         1 ACP         0.4275
     43 H1'        -2.0584    1.4255    1.8301 H         1 ACP         0.1009
     44 H8         -3.8030    0.2355   -0.9657 H         1 ACP         0.1067
     45 HN61       -5.2130   -4.1372    0.4810 H         1 ACP         0.4213
     46 HN62       -4.7404   -5.2263    1.7576 H         1 ACP         0.4213
     47 H2         -1.3778   -3.0348    4.0107 H         1 ACP         0.0365
@<TRIPOS>BOND
     1    1    2 2
     2    1    3 1
     3    1    4 1
     4    1    8 1
     5    3   32 1
     6    4   33 1
     7    5    6 2
     8    5    7 1
     9    5    8 1
    10    5   12 1
    11    8   34 1
    12    8   35 1
    13    9   10 2
    14    9   11 1
    15    9   12 1
    16    9   13 1
    17   13   14 1
    18   14   15 1
    19   14   36 1
    20   14   37 1
    21   15   16 1
    22   15   17 1
    23   15   38 1
    24   16   21 1
    25   17   18 1
    26   17   19 1
    27   17   39 1
    28   18   40 1
    29   19   20 1
    30   19   21 1
    31   19   41 1
    32   20   42 1
    33   21   22 1
    34   21   43 1
    35   22   23 ar
    36   22   31 ar
    37   23   24 ar
    38   23   44 1
    39   24   25 ar
    40   25   26 ar
    41   25   31 ar
    42   26   27 1
    43   26   28 ar
    44   27   45 1
    45   27   46 1
    46   28   29 ar
    47   29   30 ar
    48   29   47 1
    49   30   31 ar
@<TRIPOS>SUBSTRUCTURE
     1 ACP         1 GROUP 0 A     ****
@<TRIPOS>MOLECULE
[[5-(6-aminopurin-9-yl)-3,4-dihydroxy-tetrahydrofuran-2-yl]methoxy-oxido-phosphoryl]oxy-(phosphonomethyl)phosphinate
   47    49     1     0     0
SMALL
USER_CHARGES

@<TRIPOS>ATOM
      1 PG          7.7756    3.3113   -1.8449 P.3       1 ACP         1.6478
      2 O1G         6.4134    2.6867   -1.8036 O.2       1 ACP        -0.9103
      3 O2G         7.7971    4.9204   -1.9886 O.3       1 ACP        -0.7989
      4 O3G         8.7314    2.8103   -3.0470 O.3       1 ACP        -0.7989
      5 PB          8.2634    3.5500    1.3229 P.3       1 ACP         1.4947
      6 O1B         8.1091    5.0529    1.2892 O.co2     1 ACP        -0.8554
      7 O2B         9.1706    2.8537    2.3107 O.co2     1 ACP        -0.8554
      8 C3B         8.7775    3.0135   -0.3708 C.3       1 ACP        -0.6550
      9 PA          6.3565    1.2769    1.3737 P.3       1 ACP         1.5921
     10 O1A         6.7988    0.6870    2.6954 O.co2     1 ACP        -0.8561
     11 O2A         6.7715    0.6371    0.0667 O.co2     1 ACP        -0.8561
     12 O3A         6.7901    2.8512    1.3385 O.3       1 ACP        -0.8166
     13 O5'         4.7294    1.4425    1.3700 O.3       1 ACP        -0.5737
     14 C5'         4.0922    1.9801    0.2227 C.3       1 ACP         0.2197
     15 C4'         2.5944    2.0310    0.4653 C.3       1 ACP         0.0944
     16 O4'         1.9327    2.5740   -0.6889 O.3       1 ACP        -0.4017
     17 C3'         1.9685    0.6634    0.6767 C.3       1 ACP         0.0859
     18 O3'         2.1425    0.1975    1.9977 O.3       1 ACP        -0.5941
     19 C2'         0.5176    0.9128    0.3099 C.3       1 ACP         0.0924
     20 O2'        -0.2103    1.4454    1.4152 O.3       1 ACP        -0.5928
     21 C1'         0.6219    1.9765   -0.7844 C.3       1 ACP         0.3967
     22 N9          0.4237    1.4496   -2.1357 N.pl3     1 ACP        -0.6763
     23 C8          1.4026    0.9717   -2.9660 C.ar      1 ACP         0.5586
     24 N7          0.9183    0.5619   -4.1197 N.2       1 ACP        -0.5795
     25 C5         -0.4330    0.7845   -4.0331 C.ar      1 ACP        -0.2116
     26 C6         -1.4794    0.5615   -4.9225 C.ar      1 ACP         0.7185
     27 N6         -1.2378    0.0044   -6.1899 N.pl3     1 ACP        -0.9442
     28 N1         -2.7406    0.8885   -4.5512 N.ar      1 ACP        -0.8040
     29 C2         -2.9113    1.4216   -3.3172 C.ar      1 ACP         0.6560
     30 N3         -1.9824    1.6843   -2.3721 N.ar      1 ACP        -0.7058
     31 C4         -0.7613    1.3370   -2.8054 C.ar      1 ACP         0.5729
     32 HOG2        7.3823    5.3327   -2.7760 H         1 ACP         0.4440
     33 HOG3        8.4395    2.9446   -3.9737 H         1 ACP         0.4440
     34 H3B1        8.9469    1.9332   -0.2985 H         1 ACP         0.1084
     35 H3B2        9.7538    3.4787   -0.5485 H         1 ACP         0.1084
     36 H5'1        4.4845    2.9853    0.0383 H         1 ACP         0.0281
     37 H5'2        4.3193    1.3444   -0.6389 H         1 ACP         0.0281
     38 H4'         2.3751    2.7029    1.3156 H         1 ACP         0.1082
     39 H3'         2.4336   -0.1217   -0.0015 H         1 ACP         0.0650
     40 HO3'        3.0987    0.1465    2.1461 H         1 ACP         0.4300
     41 H2'         0.0316    0.0155   -0.0339 H         1 ACP         0.0785
     42 HO2'       -0.1608    0.7921    2.1351 H         1 ACP         0.4275
     43 H1'        -0.1474    2.7798   -0.6651 H         1 ACP         0.1009
     44 H8          2.4442    0.9470   -2.6763 H         1 ACP         0.1067
     45 HN61       -0.2955   -0.1901   -6.4713 H         1 ACP         0.4213
     46 HN62       -1.9987   -0.1045   -6.8334 H         1 ACP         0.4213
     47 H2         -3.9335    1.6716   -3.0534 H         1 ACP         0.0365
@<TRIPOS>BOND
     1    1    2 2
     2    1    3 1
     3    1    4 1
     4    1    8 1
     5    3   32 1
     6    4   33 1
     7    5    6 2
     8    5    7 1
     9    5    8 1
    10    5   12 1
    11    8   34 1
    12    8   35 1
    13    9   10 2
    14    9   11 1
    15    9   12 1
    16    9   13 1
    17   13   14 1
    18   14   15 1
    19   14   36 1
    20   14   37 1
    21   15   16 1
    22   15   17 1
    23   15   38 1
    24   16   21 1
    25   17   18 1
    26   17   19 1
    27   17   39 1
    28   18   40 1
    29   19   20 1
    30   19   21 1
    31   19   41 1
    32   20   42 1
    33   21   22 1
    34   21   43 1
    35   22   23 ar
    36   22   31 ar
    37   23   24 ar
    38   23   44 1
    39   24   25 ar
    40   25   26 ar
    41   25   31 ar
    42   26   27 1
    43   26   28 ar
    44   27   45 1
    45   27   46 1
    46   28   29 ar
    47   29   30 ar
    48   29   47 1
    49   30   31 ar
@<TRIPOS>SUBSTRUCTURE
     1 ACP         1 GROUP 0 A     ****
@<TRIPOS>MOLECULE
[[5-(6-aminopurin-9-yl)-3,4-dihydroxy-tetrahydrofuran-2-yl]methoxy-oxido-phosphoryl]oxy-(phosphonomethyl)phosphinate
   47    49     1     0     0
SMALL
USER_CHARGES

@<TRIPOS>ATOM
      1 PG          9.2543    3.0265    3.6219 P.3       1 ACP         1.6478
      2 O1G         9.5284    1.9281    2.6391 O.2       1 ACP        -0.9103
      3 O2G         9.9546    4.4444    3.2911 O.3       1 ACP        -0.7989
      4 O3G         9.7083    2.7246    5.1426 O.3       1 ACP        -0.7989
      5 PB          6.4777    4.0657    2.3808 P.3       1 ACP         1.4947
      6 O1B         7.1158    5.3397    1.8777 O.co2     1 ACP        -0.8554
      7 O2B         5.0327    4.0050    2.8189 O.co2     1 ACP        -0.8554
      8 C3B         7.5074    3.4566    3.7914 C.3       1 ACP        -0.6550
      9 PA          6.3565    1.2769    1.3737 P.3       1 ACP         1.5921
     10 O1A         6.7988    0.6870    2.6954 O.co2     1 ACP        -0.8561
     11 O2A         6.7715    0.6371    0.0667 O.co2     1 ACP        -0.8561
     12 O3A         6.7901    2.8512    1.3385 O.3       1 ACP        -0.8166
     13 O5'         4.7294    1.4425    1.3700 O.3       1 ACP        -0.5737
     14 C5'         4.0922    1.9801    0.2227 C.3       1 ACP         0.2197
     15 C4'         2.5944    2.0310    0.4653 C.3       1 ACP         0.0944
     16 O4'         1.9327    2.5740   -0.6889 O.3       1 ACP        -0.4017
     17 C3'         1.9685    0.6634    0.6767 C.3       1 ACP         0.0859
     18 O3'         2.1425    0.1975    1.9977 O.3       1 ACP        -0.5941
     19 C2'         0.5176    0.9128    0.3099 C.3       1 ACP         0.0924
     20 O2'        -0.2103    1.4454    1.4152 O.3       1 ACP        -0.5928
     21 C1'         0.6219    1.9765   -0.7844 C.3       1 ACP         0.3967
     22 N9          0.4237    1.4496   -2.1357 N.pl3     1 ACP        -0.6763
     23 C8          1.4026    0.9717   -2.9660 C.ar      1 ACP         0.5586
     24 N7          0.9183    0.5619   -4.1197 N.2       1 ACP        -0.5795
     25 C5         -0.4330    0.7845   -4.0331 C.ar      1 ACP        -0.2116
     26 C6         -1.4794    0.5615   -4.9225 C.ar      1 ACP         0.7185
     27 N6         -1.2378    0.0044   -6.1899 N.pl3     1 ACP        -0.9442
     28 N1         -2.7406    0.8885   -4.5512 N.ar      1 ACP        -0.8040
     29 C2         -2.9113    1.4216   -3.3172 C.ar      1 ACP         0.6560
     30 N3         -1.9824    1.6843   -2.3721 N.ar      1 ACP        -0.7058
     31 C4         -0.7613    1.3370   -2.8054 C.ar      1 ACP         0.5729
     32 HOG2       10.9327    4.4893    3.2339 H         1 ACP         0.4440
     33 HOG3       10.6539    2.5429    5.3290 H         1 ACP         0.4440
     34 H3B1        6.9851    2.5739    4.1773 H         1 ACP         0.1084
     35 H3B2        7.4422    4.2301    4.5651 H         1 ACP         0.1084
     36 H5'1        4.4845    2.9853    0.0383 H         1 ACP         0.0281
     37 H5'2        4.3193    1.3444   -0.6389 H         1 ACP         0.0281
     38 H4'         2.3751    2.7029    1.3156 H         1 ACP         0.1082
     39 H3'         2.4336   -0.1217   -0.0015 H         1 ACP         0.0650
     40 HO3'        3.0987    0.1465    2.1461 H         1 ACP         0.4300
     41 H2'         0.0316    0.0155   -0.0339 H         1 ACP         0.0785
     42 HO2'       -1.1270    1.5823    1.1180 H         1 ACP         0.4275
     43 H1'        -0.1474    2.7798   -0.6651 H         1 ACP         0.1009
     44 H8          2.4442    0.9470   -2.6763 H         1 ACP         0.1067
     45 HN61       -0.2955   -0.1901   -6.4713 H         1 ACP         0.4213
     46 HN62       -1.9987   -0.1045   -6.8334 H         1 ACP         0.4213
     47 H2         -3.9335    1.6716   -3.0534 H         1 ACP         0.0365
@<TRIPOS>BOND
     1    1    2 2
     2    1    3 1
     3    1    4 1
     4    1    8 1
     5    3   32 1
     6    4   33 1
     7    5    6 2
     8    5    7 1
     9    5    8 1
    10    5   12 1
    11    8   34 1
    12    8   35 1
    13    9   10 2
    14    9   11 1
    15    9   12 1
    16    9   13 1
    17   13   14 1
    18   14   15 1
    19   14   36 1
    20   14   37 1
    21   15   16 1
    22   15   17 1
    23   15   38 1
    24   16   21 1
    25   17   18 1
    26   17   19 1
    27   17   39 1
    28   18   40 1
    29   19   20 1
    30   19   21 1
    31   19   41 1
    32   20   42 1
    33   21   22 1
    34   21   43 1
    35   22   23 ar
    36   22   31 ar
    37   23   24 ar
    38   23   44 1
    39   24   25 ar
    40   25   26 ar
    41   25   31 ar
    42   26   27 1
    43   26   28 ar
    44   27   45 1
    45   27   46 1
    46   28   29 ar
    47   29   30 ar
    48   29   47 1
    49   30   31 ar
@<TRIPOS>SUBSTRUCTURE
     1 ACP         1 GROUP 0 A     ****
@<TRIPOS>MOLECULE
[[5-(6-aminopurin-9-yl)-3,4-dihydroxy-tetrahydrofuran-2-yl]methoxy-oxido-phosphoryl]oxy-(phosphonomethyl)phosphinate
   47    49     1     0     0
SMALL
USER_CHARGES

@<TRIPOS>ATOM
      1 PG         -2.8723    3.6011   -2.1575 P.3       1 ACP         1.6478
      2 O1G        -2.1344    2.6410   -1.2737 O.2       1 ACP        -0.9103
      3 O2G        -4.4770    3.6225   -1.9717 O.3       1 ACP        -0.7989
      4 O3G        -2.6771    3.3719   -3.7447 O.3       1 ACP        -0.7989
      5 PB         -2.5870    6.2227   -0.3203 P.3       1 ACP         1.4947
      6 O1B        -4.0529    6.1932    0.0456 O.co2     1 ACP        -0.8554
      7 O2B        -1.8080    7.5131   -0.4289 O.co2     1 ACP        -0.8554
      8 C3B        -2.4059    5.3322   -1.9312 C.3       1 ACP        -0.6550
      9 PA         -0.1841    4.7788    0.6530 P.3       1 ACP         1.5921
     10 O1A         0.5902    5.9920    1.1214 O.co2     1 ACP        -0.8561
     11 O2A         0.1754    4.0890   -0.6450 O.co2     1 ACP        -0.8561
     12 O3A        -1.7713    5.1620    0.6117 O.3       1 ACP        -0.8166
     13 O5'        -0.2059    3.6558    1.8419 O.3       1 ACP        -0.5737
     14 C5'        -0.8811    2.4285    1.6206 C.3       1 ACP         0.2197
     15 C4'        -0.1994    1.3333    2.4288 C.3       1 ACP         0.0944
     16 O4'        -1.1285    0.2356    2.5840 O.3       1 ACP        -0.4017
     17 C3'         1.0324    0.7610    1.7344 C.3       1 ACP         0.0859
     18 O3'         1.9175    0.2377    2.7247 O.3       1 ACP        -0.5941
     19 C2'         0.4468   -0.3802    0.9263 C.3       1 ACP         0.0924
     20 O2'         1.3993   -1.3703    0.5961 O.3       1 ACP        -0.5928
     21 C1'        -0.6159   -0.9100    1.8769 C.3       1 ACP         0.3967
     22 N9         -1.7127   -1.6108    1.2130 N.pl3     1 ACP        -0.6763
     23 C8         -1.7712   -2.9546    0.9544 C.ar      1 ACP         0.5586
     24 N7         -2.8883   -3.2948    0.3462 N.2       1 ACP        -0.5795
     25 C5         -3.5834   -2.1202    0.2043 C.ar      1 ACP        -0.2116
     26 C6         -4.8225   -1.8251   -0.3554 C.ar      1 ACP         0.7185
     27 N6         -5.6154   -2.8394   -0.9189 N.pl3     1 ACP        -0.9442
     28 N1         -5.2589   -0.5425   -0.3507 N.ar      1 ACP        -0.8040
     29 C2         -4.4510    0.3913    0.2069 C.ar      1 ACP         0.6560
     30 N3         -3.2368    0.2296    0.7767 N.ar      1 ACP        -0.7058
     31 C4         -2.8684   -1.0596    0.7376 C.ar      1 ACP         0.5729
     32 HOG2       -4.9848    2.7987   -2.1316 H         1 ACP         0.4440
     33 HOG3       -2.9477    2.5150   -4.1378 H         1 ACP         0.4440
     34 H3B1       -1.3487    5.4285   -2.2034 H         1 ACP         0.1084
     35 H3B2       -2.9781    5.9157   -2.6615 H         1 ACP         0.1084
     36 H5'1       -1.9255    2.5383    1.9294 H         1 ACP         0.0281
     37 H5'2       -0.8472    2.1934    0.5521 H         1 ACP         0.0281
     38 H4'         0.0403    1.7078    3.4343 H         1 ACP         0.1082
     39 H3'         1.5906    1.4859    1.1353 H         1 ACP         0.0650
     40 HO3'        2.6839   -0.1150    2.2479 H         1 ACP         0.4300
     41 H2'        -0.0017    0.0018    0.0005 H         1 ACP         0.0785
     42 HO2'        0.9369   -2.0558    0.0825 H         1 ACP         0.4275
     43 H1'        -0.1998   -1.6319    2.6178 H         1 ACP         0.1009
     44 H8         -0.9745   -3.6312    1.2318 H         1 ACP         0.1067
     45 HN61       -5.2619   -3.7766   -0.9586 H         1 ACP         0.4213
     46 HN62       -6.4834   -2.5990   -1.3590 H         1 ACP         0.4213
     47 H2         -4.8317    1.4071    0.1930 H         1 ACP         0.0365
@<TRIPOS>BOND
     1    1    2 2
     2    1    3 1
     3    1    4 1
     4    1    8 1
     5    3   32 1
     6    4   33 1
     7    5    6 2
     8    5    7 1
     9    5    8 1
    10    5   12 1
    11    8   34 1
    12    8   35 1
    13    9   10 2
    14    9   11 1
    15    9   12 1
    16    9   13 1
    17   13   14 1
    18   14   15 1
    19   14   36 1
    20   14   37 1
    21   15   16 1
    22   15   17 1
    23   15   38 1
    24   16   21 1
    25   17   18 1
    26   17   19 1
    27   17   39 1
    28   18   40 1
    29   19   20 1
    30   19   21 1
    31   19   41 1
    32   20   42 1
    33   21   22 1
    34   21   43 1
    35   22   23 ar
    36   22   31 ar
    37   23   24 ar
    38   23   44 1
    39   24   25 ar
    40   25   26 ar
    41   25   31 ar
    42   26   27 1
    43   26   28 ar
    44   27   45 1
    45   27   46 1
    46   28   29 ar
    47   29   30 ar
    48   29   47 1
    49   30   31 ar
@<TRIPOS>SUBSTRUCTURE
     1 ACP         1 GROUP 0 A     ****
@<TRIPOS>MOLECULE
[[5-(6-aminopurin-9-yl)-3,4-dihydroxy-tetrahydrofuran-2-yl]methoxy-oxido-phosphoryl]oxy-(phosphonomethyl)phosphinate
   47    49     1     0     0
SMALL
USER_CHARGES

@<TRIPOS>ATOM
      1 PG         -1.3135   -2.2040   -3.8164 P.3       1 ACP         1.6478
      2 O1G        -0.4924   -1.0828   -3.2543 O.2       1 ACP        -0.9103
      3 O2G        -2.0091   -3.1701   -2.7241 O.3       1 ACP        -0.7989
      4 O3G        -0.5189   -3.2298   -4.7789 O.3       1 ACP        -0.7989
      5 PB         -4.0701   -0.5984   -4.2071 P.3       1 ACP         1.4947
      6 O1B        -4.7277   -1.3397   -3.0662 O.co2     1 ACP        -0.8554
      7 O2B        -4.8487   -0.1055   -5.4048 O.co2     1 ACP        -0.8554
      8 C3B        -2.7025   -1.6699   -4.8415 C.3       1 ACP        -0.6550
      9 PA         -2.2218    1.7171   -4.3750 P.3       1 ACP         1.5921
     10 O1A        -3.1253    2.6237   -5.1827 O.co2     1 ACP        -0.8561
     11 O2A        -1.0617    1.0011   -5.0320 O.co2     1 ACP        -0.8561
     12 O3A        -3.1480    0.6084   -3.6132 O.3       1 ACP        -0.8166
     13 O5'        -1.6520    2.5338   -3.0775 O.3       1 ACP        -0.5737
     14 C5'        -0.7794    1.8744   -2.1748 C.3       1 ACP         0.2197
     15 C4'        -0.9699    2.4597   -0.7819 C.3       1 ACP         0.0944
     16 O4'        -2.1475    1.8640   -0.2014 O.3       1 ACP        -0.4017
     17 C3'         0.1697    2.1347    0.1695 C.3       1 ACP         0.0859
     18 O3'         0.1809    3.0982    1.2223 O.3       1 ACP        -0.5941
     19 C2'        -0.2543    0.7880    0.7187 C.3       1 ACP         0.0924
     20 O2'         0.3606    0.4944    1.9582 O.3       1 ACP        -0.5928
     21 C1'        -1.7682    0.9516    0.8548 C.3       1 ACP         0.3967
     22 N9         -2.5926   -0.2553    0.7436 N.pl3     1 ACP        -0.6763
     23 C8         -3.5599   -0.4866   -0.1983 C.ar      1 ACP         0.5586
     24 N7         -4.1294   -1.6639   -0.0461 N.2       1 ACP        -0.5795
     25 C5         -3.5041   -2.2191    1.0420 C.ar      1 ACP        -0.2116
     26 C6         -3.6604   -3.4390    1.6925 C.ar      1 ACP         0.7185
     27 N6         -4.6108   -4.3735    1.2468 N.pl3     1 ACP        -0.9442
     28 N1         -2.8820   -3.7179    2.7657 N.ar      1 ACP        -0.8040
     29 C2         -1.9837   -2.7784    3.1481 C.ar      1 ACP         0.6560
     30 N3         -1.7408   -1.5668    2.6022 N.ar      1 ACP        -0.7058
     31 C4         -2.5438   -1.3578    1.5483 C.ar      1 ACP         0.5729
     32 HOG2       -1.4406   -3.6584   -2.0913 H         1 ACP         0.4440
     33 HOG3        0.2458   -3.7257   -4.4165 H         1 ACP         0.4440
     34 H3B1       -2.2903   -1.1392   -5.7071 H         1 ACP         0.1084
     35 H3B2       -3.1856   -2.5766   -5.2231 H         1 ACP         0.1084
     36 H5'1       -1.0116    0.8048   -2.1755 H         1 ACP         0.0281
     37 H5'2        0.2522    2.0163   -2.5121 H         1 ACP         0.0281
     38 H4'        -1.1469    3.5409   -0.8522 H         1 ACP         0.1082
     39 H3'         1.1601    2.1310   -0.2934 H         1 ACP         0.0650
     40 HO3'        0.9173    2.8584    1.8048 H         1 ACP         0.4300
     41 H2'        -0.0024   -0.0091    0.0062 H         1 ACP         0.0785
     42 HO2'        1.3225    0.4909    1.8095 H         1 ACP         0.4275
     43 H1'        -2.0584    1.4255    1.8301 H         1 ACP         0.1009
     44 H8         -3.8030    0.2355   -0.9657 H         1 ACP         0.1067
     45 HN61       -4.6753   -5.2653    1.6999 H         1 ACP         0.4213
     46 HN62       -5.1476   -4.1759    0.4235 H         1 ACP         0.4213
     47 H2         -1.3778   -3.0348    4.0107 H         1 ACP         0.0365
@<TRIPOS>BOND
     1    1    2 2
     2    1    3 1
     3    1    4 1
     4    1    8 1
     5    3   32 1
     6    4   33 1
     7    5    6 2
     8    5    7 1
     9    5    8 1
    10    5   12 1
    11    8   34 1
    12    8   35 1
    13    9   10 2
    14    9   11 1
    15    9   12 1
    16    9   13 1
    17   13   14 1
    18   14   15 1
    19   14   36 1
    20   14   37 1
    21   15   16 1
    22   15   17 1
    23   15   38 1
    24   16   21 1
    25   17   18 1
    26   17   19 1
    27   17   39 1
    28   18   40 1
    29   19   20 1
    30   19   21 1
    31   19   41 1
    32   20   42 1
    33   21   22 1
    34   21   43 1
    35   22   23 ar
    36   22   31 ar
    37   23   24 ar
    38   23   44 1
    39   24   25 ar
    40   25   26 ar
    41   25   31 ar
    42   26   27 1
    43   26   28 ar
    44   27   45 1
    45   27   46 1
    46   28   29 ar
    47   29   30 ar
    48   29   47 1
    49   30   31 ar
@<TRIPOS>SUBSTRUCTURE
     1 ACP         1 GROUP 0 A     ****
@<TRIPOS>MOLECULE
[[5-(6-aminopurin-9-yl)-3,4-dihydroxy-tetrahydrofuran-2-yl]methoxy-oxido-phosphoryl]oxy-(phosphonomethyl)phosphinate
   47    49     1     0     0
SMALL
USER_CHARGES

@<TRIPOS>ATOM
      1 PG         -0.8705    4.2933   -4.3643 P.3       1 ACP         1.6478
      2 O1G        -2.2333    4.5199   -3.7822 O.2       1 ACP        -0.9103
      3 O2G         0.0089    5.6259   -4.6115 O.3       1 ACP        -0.7989
      4 O3G        -0.8444    3.5500   -5.7983 O.3       1 ACP        -0.7989
      5 PB          0.7053    3.7167   -1.6230 P.3       1 ACP         1.4947
      6 O1B         1.4297    5.0409   -1.6965 O.co2     1 ACP        -0.8554
      7 O2B         1.3268    2.4903   -0.9960 O.co2     1 ACP        -0.8554
      8 C3B         0.2129    3.2647   -3.3476 C.3       1 ACP        -0.6550
      9 PA         -1.9976    2.8864   -0.7224 P.3       1 ACP         1.5921
     10 O1A        -2.2799    2.1137   -1.9928 O.co2     1 ACP        -0.8561
     11 O2A        -3.1098    3.6160   -0.0008 O.co2     1 ACP        -0.8561
     12 O3A        -0.7917    3.9473   -1.0190 O.3       1 ACP        -0.8166
     13 O5'        -1.2434    1.9101    0.3513 O.3       1 ACP        -0.5737
     14 C5'        -0.8811    2.4285    1.6206 C.3       1 ACP         0.2197
     15 C4'        -0.1994    1.3333    2.4288 C.3       1 ACP         0.0944
     16 O4'        -1.1285    0.2356    2.5840 O.3       1 ACP        -0.4017
     17 C3'         1.0324    0.7610    1.7344 C.3       1 ACP         0.0859
     18 O3'         1.9175    0.2377    2.7247 O.3       1 ACP        -0.5941
     19 C2'         0.4468   -0.3802    0.9263 C.3       1 ACP         0.0924
     20 O2'         1.3993   -1.3703    0.5961 O.3       1 ACP        -0.5928
     21 C1'        -0.6159   -0.9100    1.8769 C.3       1 ACP         0.3967
     22 N9         -1.7127   -1.6108    1.2130 N.pl3     1 ACP        -0.6763
     23 C8         -2.8641   -1.0399    0.7392 C.ar      1 ACP         0.5586
     24 N7         -3.6659   -1.9257    0.1858 N.2       1 ACP        -0.5795
     25 C5         -3.0053   -3.1223    0.3069 C.ar      1 ACP        -0.2116
     26 C6         -3.3321   -4.4178   -0.0813 C.ar      1 ACP         0.7185
     27 N6         -4.5476   -4.6866   -0.7335 N.pl3     1 ACP        -0.9442
     28 N1         -2.4608   -5.4225    0.1773 N.ar      1 ACP        -0.8040
     29 C2         -1.3053   -5.1020    0.8081 C.ar      1 ACP         0.6560
     30 N3         -0.8788   -3.8921    1.2315 N.ar      1 ACP        -0.7058
     31 C4         -1.7870   -2.9477    0.9438 C.ar      1 ACP         0.5729
     32 HOG2       -0.3359    6.3173   -5.2157 H         1 ACP         0.4440
     33 HOG3       -1.3017    3.9680   -6.5586 H         1 ACP         0.4440
     34 H3B1       -0.2476    2.2732   -3.2717 H         1 ACP         0.1084
     35 H3B2        1.1494    3.1402   -3.9031 H         1 ACP         0.1084
     36 H5'1       -0.2035    3.2759    1.4765 H         1 ACP         0.0281
     37 H5'2       -1.7842    2.7761    2.1320 H         1 ACP         0.0281
     38 H4'         0.0403    1.7078    3.4343 H         1 ACP         0.1082
     39 H3'         1.5906    1.4859    1.1353 H         1 ACP         0.0650
     40 HO3'        2.6839   -0.1150    2.2479 H         1 ACP         0.4300
     41 H2'        -0.0017    0.0018    0.0005 H         1 ACP         0.0785
     42 HO2'        2.0953   -0.9375    0.0709 H         1 ACP         0.4275
     43 H1'        -0.1998   -1.6319    2.6178 H         1 ACP         0.1009
     44 H8         -3.0609    0.0200    0.8250 H         1 ACP         0.1067
     45 HN61       -5.2046   -3.9433   -0.8775 H         1 ACP         0.4213
     46 HN62       -4.7849   -5.6332   -0.9625 H         1 ACP         0.4213
     47 H2         -0.6318   -5.9307    0.9993 H         1 ACP         0.0365
@<TRIPOS>BOND
     1    1    2 2
     2    1    3 1
     3    1    4 1
     4    1    8 1
     5    3   32 1
     6    4   33 1
     7    5    6 2
     8    5    7 1
     9    5    8 1
    10    5   12 1
    11    8   34 1
    12    8   35 1
    13    9   10 2
    14    9   11 1
    15    9   12 1
    16    9   13 1
    17   13   14 1
    18   14   15 1
    19   14   36 1
    20   14   37 1
    21   15   16 1
    22   15   17 1
    23   15   38 1
    24   16   21 1
    25   17   18 1
    26   17   19 1
    27   17   39 1
    28   18   40 1
    29   19   20 1
    30   19   21 1
    31   19   41 1
    32   20   42 1
    33   21   22 1
    34   21   43 1
    35   22   23 ar
    36   22   31 ar
    37   23   24 ar
    38   23   44 1
    39   24   25 ar
    40   25   26 ar
    41   25   31 ar
    42   26   27 1
    43   26   28 ar
    44   27   45 1
    45   27   46 1
    46   28   29 ar
    47   29   30 ar
    48   29   47 1
    49   30   31 ar
@<TRIPOS>SUBSTRUCTURE
     1 ACP         1 GROUP 0 A     ****
@<TRIPOS>MOLECULE
[[5-(6-aminopurin-9-yl)-3,4-dihydroxy-tetrahydrofuran-2-yl]methoxy-oxido-phosphoryl]oxy-(phosphonomethyl)phosphinate
   47    49     1     0     0
SMALL
USER_CHARGES

@<TRIPOS>ATOM
      1 PG         -3.1919    0.2174   -7.7183 P.3       1 ACP         1.6478
      2 O1G        -2.4305    1.4989   -7.8779 O.2       1 ACP        -0.9103
      3 O2G        -2.4874   -1.0918   -8.3504 O.3       1 ACP        -0.7989
      4 O3G        -4.6704    0.2043   -8.3691 O.3       1 ACP        -0.7989
      5 PB         -2.1326   -0.5800   -4.7905 P.3       1 ACP         1.4947
      6 O1B        -1.2986   -1.7137   -5.3407 O.co2     1 ACP        -0.8554
      7 O2B        -2.7569   -0.6308   -3.4153 O.co2     1 ACP        -0.8554
      8 C3B        -3.4933   -0.2620   -6.0022 C.3       1 ACP        -0.6550
      9 PA         -1.7483    2.3548   -4.5782 P.3       1 ACP         1.5921
     10 O1A        -3.0949    2.6646   -5.1958 O.co2     1 ACP        -0.8561
     11 O2A        -0.5594    3.2567   -4.8294 O.co2     1 ACP        -0.8561
     12 O3A        -1.3325    0.8279   -4.9821 O.3       1 ACP        -0.8166
     13 O5'        -1.9208    2.1717   -2.9622 O.3       1 ACP        -0.5737
     14 C5'        -0.7794    1.8744   -2.1748 C.3       1 ACP         0.2197
     15 C4'        -0.9699    2.4597   -0.7819 C.3       1 ACP         0.0944
     16 O4'        -2.1475    1.8640   -0.2014 O.3       1 ACP        -0.4017
     17 C3'         0.1697    2.1347    0.1695 C.3       1 ACP         0.0859
     18 O3'         0.1809    3.0982    1.2223 O.3       1 ACP        -0.5941
     19 C2'        -0.2543    0.7880    0.7187 C.3       1 ACP         0.0924
     20 O2'         0.3606    0.4944    1.9582 O.3       1 ACP        -0.5928
     21 C1'        -1.7682    0.9516    0.8548 C.3       1 ACP         0.3967
     22 N9         -2.5926   -0.2553    0.7436 N.pl3     1 ACP        -0.6763
     23 C8         -3.5599   -0.4866   -0.1983 C.ar      1 ACP         0.5586
     24 N7         -4.1294   -1.6639   -0.0461 N.2       1 ACP        -0.5795
     25 C5         -3.5041   -2.2191    1.0420 C.ar      1 ACP        -0.2116
     26 C6         -3.6604   -3.4390    1.6925 C.ar      1 ACP         0.7185
     27 N6         -4.6108   -4.3735    1.2468 N.pl3     1 ACP        -0.9442
     28 N1         -2.8820   -3.7179    2.7657 N.ar      1 ACP        -0.8040
     29 C2         -1.9837   -2.7784    3.1481 C.ar      1 ACP         0.6560
     30 N3         -1.7408   -1.5668    2.6022 N.ar      1 ACP        -0.7058
     31 C4         -2.5438   -1.3578    1.5483 C.ar      1 ACP         0.5729
     32 HOG2       -2.2961   -1.1107   -9.3123 H         1 ACP         0.4440
     33 HOG3       -4.7665    0.3562   -9.3333 H         1 ACP         0.4440
     34 H3B1       -4.1177    0.5146   -5.5463 H         1 ACP         0.1084
     35 H3B2       -4.0922   -1.1796   -6.0270 H         1 ACP         0.1084
     36 H5'1       -0.6602    0.7877   -2.1203 H         1 ACP         0.0281
     37 H5'2        0.1041    2.3072   -2.6545 H         1 ACP         0.0281
     38 H4'        -1.1469    3.5409   -0.8522 H         1 ACP         0.1082
     39 H3'         1.1601    2.1310   -0.2934 H         1 ACP         0.0650
     40 HO3'        0.9173    2.8584    1.8048 H         1 ACP         0.4300
     41 H2'        -0.0024   -0.0091    0.0062 H         1 ACP         0.0785
     42 HO2'        0.0384   -0.3797    2.2403 H         1 ACP         0.4275
     43 H1'        -2.0584    1.4255    1.8301 H         1 ACP         0.1009
     44 H8         -3.8030    0.2355   -0.9657 H         1 ACP         0.1067
     45 HN61       -5.2130   -4.1372    0.4810 H         1 ACP         0.4213
     46 HN62       -4.7404   -5.2263    1.7576 H         1 ACP         0.4213
     47 H2         -1.3778   -3.0348    4.0107 H         1 ACP         0.0365
@<TRIPOS>BOND
     1    1    2 2
     2    1    3 1
     3    1    4 1
     4    1    8 1
     5    3   32 1
     6    4   33 1
     7    5    6 2
     8    5    7 1
     9    5    8 1
    10    5   12 1
    11    8   34 1
    12    8   35 1
    13    9   10 2
    14    9   11 1
    15    9   12 1
    16    9   13 1
    17   13   14 1
    18   14   15 1
    19   14   36 1
    20   14   37 1
    21   15   16 1
    22   15   17 1
    23   15   38 1
    24   16   21 1
    25   17   18 1
    26   17   19 1
    27   17   39 1
    28   18   40 1
    29   19   20 1
    30   19   21 1
    31   19   41 1
    32   20   42 1
    33   21   22 1
    34   21   43 1
    35   22   23 ar
    36   22   31 ar
    37   23   24 ar
    38   23   44 1
    39   24   25 ar
    40   25   26 ar
    41   25   31 ar
    42   26   27 1
    43   26   28 ar
    44   27   45 1
    45   27   46 1
    46   28   29 ar
    47   29   30 ar
    48   29   47 1
    49   30   31 ar
@<TRIPOS>SUBSTRUCTURE
     1 ACP         1 GROUP 0 A     ****
@<TRIPOS>MOLECULE
[[5-(6-aminopurin-9-yl)-3,4-dihydroxy-tetrahydrofuran-2-yl]methoxy-oxido-phosphoryl]oxy-(phosphonomethyl)phosphinate
   47    49     1     0     0
SMALL
USER_CHARGES

@<TRIPOS>ATOM
      1 PG         -1.3135   -2.2040   -3.8164 P.3       1 ACP         1.6478
      2 O1G        -0.4924   -1.0828   -3.2543 O.2       1 ACP        -0.9103
      3 O2G        -2.0091   -3.1701   -2.7241 O.3       1 ACP        -0.7989
      4 O3G        -0.5189   -3.2298   -4.7789 O.3       1 ACP        -0.7989
      5 PB         -4.0701   -0.5984   -4.2071 P.3       1 ACP         1.4947
      6 O1B        -4.7277   -1.3397   -3.0662 O.co2     1 ACP        -0.8554
      7 O2B        -4.8487   -0.1055   -5.4048 O.co2     1 ACP        -0.8554
      8 C3B        -2.7025   -1.6699   -4.8415 C.3       1 ACP        -0.6550
      9 PA         -2.2218    1.7171   -4.3750 P.3       1 ACP         1.5921
     10 O1A        -3.1253    2.6237   -5.1827 O.co2     1 ACP        -0.8561
     11 O2A        -1.0617    1.0011   -5.0320 O.co2     1 ACP        -0.8561
     12 O3A        -3.1480    0.6084   -3.6132 O.3       1 ACP        -0.8166
     13 O5'        -1.6520    2.5338   -3.0775 O.3       1 ACP        -0.5737
     14 C5'        -0.7794    1.8744   -2.1748 C.3       1 ACP         0.2197
     15 C4'        -0.9699    2.4597   -0.7819 C.3       1 ACP         0.0944
     16 O4'        -2.1475    1.8640   -0.2014 O.3       1 ACP        -0.4017
     17 C3'         0.1697    2.1347    0.1695 C.3       1 ACP         0.0859
     18 O3'         0.1809    3.0982    1.2223 O.3       1 ACP        -0.5941
     19 C2'        -0.2543    0.7880    0.7187 C.3       1 ACP         0.0924
     20 O2'         0.3606    0.4944    1.9582 O.3       1 ACP        -0.5928
     21 C1'        -1.7682    0.9516    0.8548 C.3       1 ACP         0.3967
     22 N9         -2.5926   -0.2553    0.7436 N.pl3     1 ACP        -0.6763
     23 C8         -2.2879   -1.3752    0.0161 C.ar      1 ACP         0.5586
     24 N7         -3.2214   -2.2987    0.1123 N.2       1 ACP        -0.5795
     25 C5         -4.1723   -1.7531    0.9377 C.ar      1 ACP        -0.2116
     26 C6         -5.3870   -2.2342    1.4159 C.ar      1 ACP         0.7185
     27 N6         -5.8433   -3.5142    1.0574 N.pl3     1 ACP        -0.9442
     28 N1         -6.1289   -1.4512    2.2356 N.ar      1 ACP        -0.8040
     29 C2         -5.6370   -0.2275    2.5461 C.ar      1 ACP         0.6560
     30 N3         -4.4810    0.3469    2.1476 N.ar      1 ACP        -0.7058
     31 C4         -3.7996   -0.4810    1.3417 C.ar      1 ACP         0.5729
     32 HOG2       -1.4406   -3.6584   -2.0913 H         1 ACP         0.4440
     33 HOG3        0.2458   -3.7257   -4.4165 H         1 ACP         0.4440
     34 H3B1       -2.2903   -1.1392   -5.7071 H         1 ACP         0.1084
     35 H3B2       -3.1856   -2.5766   -5.2231 H         1 ACP         0.1084
     36 H5'1       -1.0116    0.8048   -2.1755 H         1 ACP         0.0281
     37 H5'2        0.2522    2.0163   -2.5121 H         1 ACP         0.0281
     38 H4'        -1.1469    3.5409   -0.8522 H         1 ACP         0.1082
     39 H3'         1.1601    2.1310   -0.2934 H         1 ACP         0.0650
     40 HO3'        0.9173    2.8584    1.8048 H         1 ACP         0.4300
     41 H2'        -0.0024   -0.0091    0.0062 H         1 ACP         0.0785
     42 HO2'        0.0384   -0.3797    2.2403 H         1 ACP         0.4275
     43 H1'        -2.0584    1.4255    1.8301 H         1 ACP         0.1009
     44 H8         -1.3765   -1.4593   -0.5599 H         1 ACP         0.1067
     45 HN61       -5.3086   -4.0656    0.4134 H         1 ACP         0.4213
     46 HN62       -6.7426   -3.8233    1.3745 H         1 ACP         0.4213
     47 H2         -6.2570    0.3723    3.2040 H         1 ACP         0.0365
@<TRIPOS>BOND
     1    1    2 2
     2    1    3 1
     3    1    4 1
     4    1    8 1
     5    3   32 1
     6    4   33 1
     7    5    6 2
     8    5    7 1
     9    5    8 1
    10    5   12 1
    11    8   34 1
    12    8   35 1
    13    9   10 2
    14    9   11 1
    15    9   12 1
    16    9   13 1
    17   13   14 1
    18   14   15 1
    19   14   36 1
    20   14   37 1
    21   15   16 1
    22   15   17 1
    23   15   38 1
    24   16   21 1
    25   17   18 1
    26   17   19 1
    27   17   39 1
    28   18   40 1
    29   19   20 1
    30   19   21 1
    31   19   41 1
    32   20   42 1
    33   21   22 1
    34   21   43 1
    35   22   23 ar
    36   22   31 ar
    37   23   24 ar
    38   23   44 1
    39   24   25 ar
    40   25   26 ar
    41   25   31 ar
    42   26   27 1
    43   26   28 ar
    44   27   45 1
    45   27   46 1
    46   28   29 ar
    47   29   30 ar
    48   29   47 1
    49   30   31 ar
@<TRIPOS>SUBSTRUCTURE
     1 ACP         1 GROUP 0 A     ****
@<TRIPOS>MOLECULE
[[5-(6-aminopurin-9-yl)-3,4-dihydroxy-tetrahydrofuran-2-yl]methoxy-oxido-phosphoryl]oxy-(phosphonomethyl)phosphinate
   47    49     1     0     0
SMALL
USER_CHARGES

@<TRIPOS>ATOM
      1 PG         -5.3743    6.7699    1.1118 P.3       1 ACP         1.6478
      2 O1G        -5.7133    7.2071   -0.2815 O.2       1 ACP        -0.9103
      3 O2G        -6.3829    7.2831    2.2649 O.3       1 ACP        -0.7989
      4 O3G        -3.9208    7.2283    1.6474 O.3       1 ACP        -0.7989
      5 PB         -4.2277    3.8513    0.4069 P.3       1 ACP         1.4947
      6 O1B        -4.5486    4.0191   -1.0602 O.co2     1 ACP        -0.8554
      7 O2B        -4.2634    2.5050    1.0922 O.co2     1 ACP        -0.8554
      8 C3B        -5.3535    4.9783    1.3468 C.3       1 ACP        -0.6550
      9 PA         -2.0037    4.7529    2.1525 P.3       1 ACP         1.5921
     10 O1A        -2.9381    5.3267    3.1957 O.co2     1 ACP        -0.8561
     11 O2A        -0.6728    5.4124    1.8637 O.co2     1 ACP        -0.8561
     12 O3A        -2.8235    4.6072    0.7474 O.3       1 ACP        -0.8166
     13 O5'        -1.7337    3.1724    2.4754 O.3       1 ACP        -0.5737
     14 C5'        -0.8811    2.4285    1.6206 C.3       1 ACP         0.2197
     15 C4'        -0.1994    1.3333    2.4288 C.3       1 ACP         0.0944
     16 O4'        -1.1285    0.2356    2.5840 O.3       1 ACP        -0.4017
     17 C3'         1.0324    0.7610    1.7344 C.3       1 ACP         0.0859
     18 O3'         1.9175    0.2377    2.7247 O.3       1 ACP        -0.5941
     19 C2'         0.4468   -0.3802    0.9263 C.3       1 ACP         0.0924
     20 O2'         1.3993   -1.3703    0.5961 O.3       1 ACP        -0.5928
     21 C1'        -0.6159   -0.9100    1.8769 C.3       1 ACP         0.3967
     22 N9         -1.7127   -1.6108    1.2130 N.pl3     1 ACP        -0.6763
     23 C8         -2.8641   -1.0399    0.7392 C.ar      1 ACP         0.5586
     24 N7         -3.6659   -1.9257    0.1858 N.2       1 ACP        -0.5795
     25 C5         -3.0053   -3.1223    0.3069 C.ar      1 ACP        -0.2116
     26 C6         -3.3321   -4.4178   -0.0813 C.ar      1 ACP         0.7185
     27 N6         -4.5476   -4.6866   -0.7335 N.pl3     1 ACP        -0.9442
     28 N1         -2.4608   -5.4225    0.1773 N.ar      1 ACP        -0.8040
     29 C2         -1.3053   -5.1020    0.8081 C.ar      1 ACP         0.6560
     30 N3         -0.8788   -3.8921    1.2315 N.ar      1 ACP        -0.7058
     31 C4         -1.7870   -2.9477    0.9438 C.ar      1 ACP         0.5729
     32 HOG2       -6.5001    8.2476    2.3988 H         1 ACP         0.4440
     33 HOG3       -3.7139    8.1857    1.6998 H         1 ACP         0.4440
     34 H3B1       -5.1458    4.7857    2.4054 H         1 ACP         0.1084
     35 H3B2       -6.3697    4.6182    1.1500 H         1 ACP         0.1084
     36 H5'1       -1.4802    1.9929    0.8148 H         1 ACP         0.0281
     37 H5'2       -0.1370    3.1043    1.1873 H         1 ACP         0.0281
     38 H4'         0.0403    1.7078    3.4343 H         1 ACP         0.1082
     39 H3'         1.5906    1.4859    1.1353 H         1 ACP         0.0650
     40 HO3'        2.6839   -0.1150    2.2479 H         1 ACP         0.4300
     41 H2'        -0.0017    0.0018    0.0005 H         1 ACP         0.0785
     42 HO2'        2.0953   -0.9375    0.0709 H         1 ACP         0.4275
     43 H1'        -0.1998   -1.6319    2.6178 H         1 ACP         0.1009
     44 H8         -3.0609    0.0200    0.8250 H         1 ACP         0.1067
     45 HN61       -5.2046   -3.9433   -0.8775 H         1 ACP         0.4213
     46 HN62       -4.7849   -5.6332   -0.9625 H         1 ACP         0.4213
     47 H2         -0.6318   -5.9307    0.9993 H         1 ACP         0.0365
@<TRIPOS>BOND
     1    1    2 2
     2    1    3 1
     3    1    4 1
     4    1    8 1
     5    3   32 1
     6    4   33 1
     7    5    6 2
     8    5    7 1
     9    5    8 1
    10    5   12 1
    11    8   34 1
    12    8   35 1
    13    9   10 2
    14    9   11 1
    15    9   12 1
    16    9   13 1
    17   13   14 1
    18   14   15 1
    19   14   36 1
    20   14   37 1
    21   15   16 1
    22   15   17 1
    23   15   38 1
    24   16   21 1
    25   17   18 1
    26   17   19 1
    27   17   39 1
    28   18   40 1
    29   19   20 1
    30   19   21 1
    31   19   41 1
    32   20   42 1
    33   21   22 1
    34   21   43 1
    35   22   23 ar
    36   22   31 ar
    37   23   24 ar
    38   23   44 1
    39   24   25 ar
    40   25   26 ar
    41   25   31 ar
    42   26   27 1
    43   26   28 ar
    44   27   45 1
    45   27   46 1
    46   28   29 ar
    47   29   30 ar
    48   29   47 1
    49   30   31 ar
@<TRIPOS>SUBSTRUCTURE
     1 ACP         1 GROUP 0 A     ****
@<TRIPOS>MOLECULE
[[5-(6-aminopurin-9-yl)-3,4-dihydroxy-tetrahydrofuran-2-yl]methoxy-oxido-phosphoryl]oxy-(phosphonomethyl)phosphinate
   47    49     1     0     0
SMALL
USER_CHARGES

@<TRIPOS>ATOM
      1 PG          7.5724   -0.6613    0.6876 P.3       1 ACP         1.6478
      2 O1G         7.4921   -1.4659   -0.5747 O.2       1 ACP        -0.9103
      3 O2G         8.0944   -1.4630    1.9895 O.3       1 ACP        -0.7989
      4 O3G         6.1814   -0.0034    1.1795 O.3       1 ACP        -0.7989
      5 PB          8.4714    2.1372   -0.6126 P.3       1 ACP         1.4947
      6 O1B         8.5419    1.5346   -1.9966 O.co2     1 ACP        -0.8554
      7 O2B         9.3766    3.2659   -0.1765 O.co2     1 ACP        -0.8554
      8 C3B         8.6895    0.7563    0.5984 C.3       1 ACP        -0.6550
      9 PA          5.8654    3.5047   -0.9930 P.3       1 ACP         1.5921
     10 O1A         5.5593    2.9518   -2.3681 O.co2     1 ACP        -0.8561
     11 O2A         6.3578    4.9258   -0.8257 O.co2     1 ACP        -0.8561
     12 O3A         6.9226    2.5019   -0.2553 O.3       1 ACP        -0.8166
     13 O5'         4.5669    3.2941   -0.0211 O.3       1 ACP        -0.5737
     14 C5'         4.0922    1.9801    0.2227 C.3       1 ACP         0.2197
     15 C4'         2.5944    2.0310    0.4653 C.3       1 ACP         0.0944
     16 O4'         1.9327    2.5740   -0.6889 O.3       1 ACP        -0.4017
     17 C3'         1.9685    0.6634    0.6767 C.3       1 ACP         0.0859
     18 O3'         2.1425    0.1975    1.9977 O.3       1 ACP        -0.5941
     19 C2'         0.5176    0.9128    0.3099 C.3       1 ACP         0.0924
     20 O2'        -0.2103    1.4454    1.4152 O.3       1 ACP        -0.5928
     21 C1'         0.6219    1.9765   -0.7844 C.3       1 ACP         0.3967
     22 N9          0.4237    1.4496   -2.1357 N.pl3     1 ACP        -0.6763
     23 C8         -0.7736    1.3475   -2.7932 C.ar      1 ACP         0.5586
     24 N7         -0.6356    0.8373   -3.9991 N.2       1 ACP        -0.5795
     25 C5          0.7095    0.5981   -4.1281 C.ar      1 ACP        -0.2116
     26 C6          1.4733    0.0704   -5.1643 C.ar      1 ACP         0.7185
     27 N6          0.8693   -0.3355   -6.3666 N.pl3     1 ACP        -0.9442
     28 N1          2.8130   -0.0482   -5.0009 N.ar      1 ACP        -0.8040
     29 C2          3.3380    0.3602   -3.8204 C.ar      1 ACP         0.6560
     30 N3          2.7052    0.8841   -2.7480 N.ar      1 ACP        -0.7058
     31 C4          1.3867    0.9726   -2.9785 C.ar      1 ACP         0.5729
     32 HOG2        7.5885   -2.2434    2.3013 H         1 ACP         0.4440
     33 HOG3        5.4238   -0.5916    1.3844 H         1 ACP         0.4440
     34 H3B1        8.7020    1.2305    1.5863 H         1 ACP         0.1084
     35 H3B2        9.6958    0.3598    0.4218 H         1 ACP         0.1084
     36 H5'1        4.3181    1.3551   -0.6470 H         1 ACP         0.0281
     37 H5'2        4.6085    1.5740    1.0982 H         1 ACP         0.0281
     38 H4'         2.3751    2.7029    1.3156 H         1 ACP         0.1082
     39 H3'         2.4336   -0.1217   -0.0015 H         1 ACP         0.0650
     40 HO3'        1.7160   -0.6716    2.0397 H         1 ACP         0.4300
     41 H2'         0.0316    0.0155   -0.0339 H         1 ACP         0.0785
     42 HO2'       -0.1608    0.7921    2.1351 H         1 ACP         0.4275
     43 H1'        -0.1474    2.7798   -0.6651 H         1 ACP         0.1009
     44 H8         -1.7070    1.6599   -2.3451 H         1 ACP         0.1067
     45 HN61       -0.1277   -0.2866   -6.4583 H         1 ACP         0.4213
     46 HN62        1.4308   -0.7566   -7.0823 H         1 ACP         0.4213
     47 H2          4.4130    0.2505   -3.7241 H         1 ACP         0.0365
@<TRIPOS>BOND
     1    1    2 2
     2    1    3 1
     3    1    4 1
     4    1    8 1
     5    3   32 1
     6    4   33 1
     7    5    6 2
     8    5    7 1
     9    5    8 1
    10    5   12 1
    11    8   34 1
    12    8   35 1
    13    9   10 2
    14    9   11 1
    15    9   12 1
    16    9   13 1
    17   13   14 1
    18   14   15 1
    19   14   36 1
    20   14   37 1
    21   15   16 1
    22   15   17 1
    23   15   38 1
    24   16   21 1
    25   17   18 1
    26   17   19 1
    27   17   39 1
    28   18   40 1
    29   19   20 1
    30   19   21 1
    31   19   41 1
    32   20   42 1
    33   21   22 1
    34   21   43 1
    35   22   23 ar
    36   22   31 ar
    37   23   24 ar
    38   23   44 1
    39   24   25 ar
    40   25   26 ar
    41   25   31 ar
    42   26   27 1
    43   26   28 ar
    44   27   45 1
    45   27   46 1
    46   28   29 ar
    47   29   30 ar
    48   29   47 1
    49   30   31 ar
@<TRIPOS>SUBSTRUCTURE
     1 ACP         1 GROUP 0 A     ****
@<TRIPOS>MOLECULE
[[5-(6-aminopurin-9-yl)-3,4-dihydroxy-tetrahydrofuran-2-yl]methoxy-oxido-phosphoryl]oxy-(phosphonomethyl)phosphinate
   47    49     1     0     0
SMALL
USER_CHARGES

@<TRIPOS>ATOM
      1 PG         -3.4807    5.8929   -5.5750 P.3       1 ACP         1.6478
      2 O1G        -4.7444    6.1612   -6.3356 O.2       1 ACP        -0.9103
      3 O2G        -3.6247    4.8785   -4.3258 O.3       1 ACP        -0.7989
      4 O3G        -2.7719    7.1926   -4.9286 O.3       1 ACP        -0.7989
      5 PB         -0.5019    4.7212   -5.8639 P.3       1 ACP         1.4947
      6 O1B         0.1112    6.0007   -5.3440 O.co2     1 ACP        -0.8554
      7 O2B         0.1981    3.8437   -6.8757 O.co2     1 ACP        -0.8554
      8 C3B        -2.1602    5.1513   -6.5608 C.3       1 ACP        -0.6550
      9 PA         -1.7483    2.3548   -4.5782 P.3       1 ACP         1.5921
     10 O1A        -0.7754    1.3199   -5.1006 O.co2     1 ACP        -0.8561
     11 O2A        -3.1254    2.4959   -5.1896 O.co2     1 ACP        -0.8561
     12 O3A        -1.0174    3.8151   -4.6099 O.3       1 ACP        -0.8166
     13 O5'        -1.9208    2.1717   -2.9622 O.3       1 ACP        -0.5737
     14 C5'        -0.7794    1.8744   -2.1748 C.3       1 ACP         0.2197
     15 C4'        -0.9699    2.4597   -0.7819 C.3       1 ACP         0.0944
     16 O4'        -2.1475    1.8640   -0.2014 O.3       1 ACP        -0.4017
     17 C3'         0.1697    2.1347    0.1695 C.3       1 ACP         0.0859
     18 O3'         0.1809    3.0982    1.2223 O.3       1 ACP        -0.5941
     19 C2'        -0.2543    0.7880    0.7187 C.3       1 ACP         0.0924
     20 O2'         0.3606    0.4944    1.9582 O.3       1 ACP        -0.5928
     21 C1'        -1.7682    0.9516    0.8548 C.3       1 ACP         0.3967
     22 N9         -2.5926   -0.2553    0.7436 N.pl3     1 ACP        -0.6763
     23 C8         -3.1120   -0.7726   -0.4135 C.ar      1 ACP         0.5586
     24 N7         -3.8089   -1.8688   -0.1980 N.2       1 ACP        -0.5795
     25 C5         -3.7380   -2.0700    1.1576 C.ar      1 ACP        -0.2116
     26 C6         -4.2662   -3.0526    1.9890 C.ar      1 ACP         0.7185
     27 N6         -5.0420   -4.0987    1.4609 N.pl3     1 ACP        -0.9442
     28 N1         -4.0226   -2.9899    3.3202 N.ar      1 ACP        -0.8040
     29 C2         -3.2679   -1.9585    3.7704 C.ar      1 ACP         0.6560
     30 N3         -2.7045   -0.9514    3.0680 N.ar      1 ACP        -0.7058
     31 C4         -2.9852   -1.0761    1.7622 C.ar      1 ACP         0.5729
     32 HOG2       -4.2340    5.1107   -3.5931 H         1 ACP         0.4440
     33 HOG3       -3.2690    7.7295   -4.2754 H         1 ACP         0.4440
     34 H3B1       -2.5497    4.2209   -6.9893 H         1 ACP         0.1084
     35 H3B2       -1.9656    5.8315   -7.3979 H         1 ACP         0.1084
     36 H5'1       -0.6602    0.7877   -2.1203 H         1 ACP         0.0281
     37 H5'2        0.1041    2.3072   -2.6545 H         1 ACP         0.0281
     38 H4'        -1.1469    3.5409   -0.8522 H         1 ACP         0.1082
     39 H3'         1.1601    2.1310   -0.2934 H         1 ACP         0.0650
     40 HO3'        0.9173    2.8584    1.8048 H         1 ACP         0.4300
     41 H2'        -0.0024   -0.0091    0.0062 H         1 ACP         0.0785
     42 HO2'        0.0384   -0.3797    2.2403 H         1 ACP         0.4275
     43 H1'        -2.0584    1.4255    1.8301 H         1 ACP         0.1009
     44 H8         -2.9491   -0.3098   -1.3772 H         1 ACP         0.1067
     45 HN61       -5.2544   -4.1089    0.4813 H         1 ACP         0.4213
     46 HN62       -5.4523   -4.7699    2.0823 H         1 ACP         0.4213
     47 H2         -3.0933   -1.9395    4.8410 H         1 ACP         0.0365
@<TRIPOS>BOND
     1    1    2 2
     2    1    3 1
     3    1    4 1
     4    1    8 1
     5    3   32 1
     6    4   33 1
     7    5    6 2
     8    5    7 1
     9    5    8 1
    10    5   12 1
    11    8   34 1
    12    8   35 1
    13    9   10 2
    14    9   11 1
    15    9   12 1
    16    9   13 1
    17   13   14 1
    18   14   15 1
    19   14   36 1
    20   14   37 1
    21   15   16 1
    22   15   17 1
    23   15   38 1
    24   16   21 1
    25   17   18 1
    26   17   19 1
    27   17   39 1
    28   18   40 1
    29   19   20 1
    30   19   21 1
    31   19   41 1
    32   20   42 1
    33   21   22 1
    34   21   43 1
    35   22   23 ar
    36   22   31 ar
    37   23   24 ar
    38   23   44 1
    39   24   25 ar
    40   25   26 ar
    41   25   31 ar
    42   26   27 1
    43   26   28 ar
    44   27   45 1
    45   27   46 1
    46   28   29 ar
    47   29   30 ar
    48   29   47 1
    49   30   31 ar
@<TRIPOS>SUBSTRUCTURE
     1 ACP         1 GROUP 0 A     ****
@<TRIPOS>MOLECULE
[[5-(6-aminopurin-9-yl)-3,4-dihydroxy-tetrahydrofuran-2-yl]methoxy-oxido-phosphoryl]oxy-(phosphonomethyl)phosphinate
   47    49     1     0     0
SMALL
USER_CHARGES

@<TRIPOS>ATOM
      1 PG         -1.5425    4.9262   -6.8835 P.3       1 ACP         1.6478
      2 O1G        -2.5445    5.6140   -7.7612 O.2       1 ACP        -0.9103
      3 O2G        -2.0037    4.6954   -5.3524 O.3       1 ACP        -0.7989
      4 O3G        -0.1172    5.6732   -6.7420 O.3       1 ACP        -0.7989
      5 PB          0.1305    2.2049   -6.5293 P.3       1 ACP         1.4947
      6 O1B         1.4442    2.9511   -6.5023 O.co2     1 ACP        -0.8554
      7 O2B         0.0082    0.8057   -7.0870 O.co2     1 ACP        -0.8554
      8 C3B        -1.0848    3.2666   -7.4330 C.3       1 ACP        -0.6550
      9 PA         -1.9759    1.6544   -4.5128 P.3       1 ACP         1.5921
     10 O1A        -1.8783    0.1444   -4.5430 O.co2     1 ACP        -0.8561
     11 O2A        -3.1136    2.3673   -5.2108 O.co2     1 ACP        -0.8561
     12 O3A        -0.5665    2.2753   -5.0567 O.3       1 ACP        -0.8166
     13 O5'        -1.9208    2.1717   -2.9622 O.3       1 ACP        -0.5737
     14 C5'        -0.7794    1.8744   -2.1748 C.3       1 ACP         0.2197
     15 C4'        -0.9699    2.4597   -0.7819 C.3       1 ACP         0.0944
     16 O4'        -2.1475    1.8640   -0.2014 O.3       1 ACP        -0.4017
     17 C3'         0.1697    2.1347    0.1695 C.3       1 ACP         0.0859
     18 O3'         0.1809    3.0982    1.2223 O.3       1 ACP        -0.5941
     19 C2'        -0.2543    0.7880    0.7187 C.3       1 ACP         0.0924
     20 O2'         0.3606    0.4944    1.9582 O.3       1 ACP        -0.5928
     21 C1'        -1.7682    0.9516    0.8548 C.3       1 ACP         0.3967
     22 N9         -2.5926   -0.2553    0.7436 N.pl3     1 ACP        -0.6763
     23 C8         -3.1120   -0.7726   -0.4135 C.ar      1 ACP         0.5586
     24 N7         -3.8089   -1.8688   -0.1980 N.2       1 ACP        -0.5795
     25 C5         -3.7380   -2.0700    1.1576 C.ar      1 ACP        -0.2116
     26 C6         -4.2662   -3.0526    1.9890 C.ar      1 ACP         0.7185
     27 N6         -5.0420   -4.0987    1.4609 N.pl3     1 ACP        -0.9442
     28 N1         -4.0226   -2.9899    3.3202 N.ar      1 ACP        -0.8040
     29 C2         -3.2679   -1.9585    3.7704 C.ar      1 ACP         0.6560
     30 N3         -2.7045   -0.9514    3.0680 N.ar      1 ACP        -0.7058
     31 C4         -2.9852   -1.0761    1.7622 C.ar      1 ACP         0.5729
     32 HOG2       -2.2262    5.4752   -4.8006 H         1 ACP         0.4440
     33 HOG3       -0.0914    6.5817   -6.3734 H         1 ACP         0.4440
     34 H3B1       -2.0041    2.6735   -7.4958 H         1 ACP         0.1084
     35 H3B2       -0.6968    3.3633   -8.4534 H         1 ACP         0.1084
     36 H5'1       -0.6602    0.7877   -2.1203 H         1 ACP         0.0281
     37 H5'2        0.1041    2.3072   -2.6545 H         1 ACP         0.0281
     38 H4'        -1.1469    3.5409   -0.8522 H         1 ACP         0.1082
     39 H3'         1.1601    2.1310   -0.2934 H         1 ACP         0.0650
     40 HO3'        0.3098    3.9616    0.8017 H         1 ACP         0.4300
     41 H2'        -0.0024   -0.0091    0.0062 H         1 ACP         0.0785
     42 HO2'        1.3225    0.4909    1.8095 H         1 ACP         0.4275
     43 H1'        -2.0584    1.4255    1.8301 H         1 ACP         0.1009
     44 H8         -2.9491   -0.3098   -1.3772 H         1 ACP         0.1067
     45 HN61       -5.2544   -4.1089    0.4813 H         1 ACP         0.4213
     46 HN62       -5.4523   -4.7699    2.0823 H         1 ACP         0.4213
     47 H2         -3.0933   -1.9395    4.8410 H         1 ACP         0.0365
@<TRIPOS>BOND
     1    1    2 2
     2    1    3 1
     3    1    4 1
     4    1    8 1
     5    3   32 1
     6    4   33 1
     7    5    6 2
     8    5    7 1
     9    5    8 1
    10    5   12 1
    11    8   34 1
    12    8   35 1
    13    9   10 2
    14    9   11 1
    15    9   12 1
    16    9   13 1
    17   13   14 1
    18   14   15 1
    19   14   36 1
    20   14   37 1
    21   15   16 1
    22   15   17 1
    23   15   38 1
    24   16   21 1
    25   17   18 1
    26   17   19 1
    27   17   39 1
    28   18   40 1
    29   19   20 1
    30   19   21 1
    31   19   41 1
    32   20   42 1
    33   21   22 1
    34   21   43 1
    35   22   23 ar
    36   22   31 ar
    37   23   24 ar
    38   23   44 1
    39   24   25 ar
    40   25   26 ar
    41   25   31 ar
    42   26   27 1
    43   26   28 ar
    44   27   45 1
    45   27   46 1
    46   28   29 ar
    47   29   30 ar
    48   29   47 1
    49   30   31 ar
@<TRIPOS>SUBSTRUCTURE
     1 ACP         1 GROUP 0 A     ****
@<TRIPOS>MOLECULE
[[5-(6-aminopurin-9-yl)-3,4-dihydroxy-tetrahydrofuran-2-yl]methoxy-oxido-phosphoryl]oxy-(phosphonomethyl)phosphinate
   47    49     1     0     0
SMALL
USER_CHARGES

@<TRIPOS>ATOM
      1 PG         -1.0323    8.3639   -0.3904 P.3       1 ACP         1.6478
      2 O1G        -2.3658    8.8692   -0.8526 O.2       1 ACP        -0.9103
      3 O2G         0.1185    9.4868   -0.2323 O.3       1 ACP        -0.7989
      4 O3G        -0.3473    7.2493   -1.3381 O.3       1 ACP        -0.7989
      5 PB         -2.0802    6.0698    1.6018 P.3       1 ACP         1.4947
      6 O1B        -3.5245    6.4424    1.3598 O.co2     1 ACP        -0.8554
      7 O2B        -1.6005    5.5129    2.9222 O.co2     1 ACP        -0.8554
      8 C3B        -1.0583    7.5661    1.2308 C.3       1 ACP        -0.6550
      9 PA         -0.0885    4.4445    0.1193 P.3       1 ACP         1.5921
     10 O1A         0.9671    5.5276    0.1742 O.co2     1 ACP        -0.8561
     11 O2A        -0.1962    3.5335   -1.0842 O.co2     1 ACP        -0.8561
     12 O3A        -1.5478    5.1301    0.3800 O.3       1 ACP        -0.8166
     13 O5'         0.0182    3.5132    1.4596 O.3       1 ACP        -0.5737
     14 C5'        -0.8811    2.4285    1.6206 C.3       1 ACP         0.2197
     15 C4'        -0.1994    1.3333    2.4288 C.3       1 ACP         0.0944
     16 O4'        -1.1285    0.2356    2.5840 O.3       1 ACP        -0.4017
     17 C3'         1.0324    0.7610    1.7344 C.3       1 ACP         0.0859
     18 O3'         1.9175    0.2377    2.7247 O.3       1 ACP        -0.5941
     19 C2'         0.4468   -0.3802    0.9263 C.3       1 ACP         0.0924
     20 O2'         1.3993   -1.3703    0.5961 O.3       1 ACP        -0.5928
     21 C1'        -0.6159   -0.9100    1.8769 C.3       1 ACP         0.3967
     22 N9         -1.7127   -1.6108    1.2130 N.pl3     1 ACP        -0.6763
     23 C8         -2.8641   -1.0399    0.7392 C.ar      1 ACP         0.5586
     24 N7         -3.6659   -1.9257    0.1858 N.2       1 ACP        -0.5795
     25 C5         -3.0053   -3.1223    0.3069 C.ar      1 ACP        -0.2116
     26 C6         -3.3321   -4.4178   -0.0813 C.ar      1 ACP         0.7185
     27 N6         -4.5476   -4.6866   -0.7335 N.pl3     1 ACP        -0.9442
     28 N1         -2.4608   -5.4225    0.1773 N.ar      1 ACP        -0.8040
     29 C2         -1.3053   -5.1020    0.8081 C.ar      1 ACP         0.6560
     30 N3         -0.8788   -3.8921    1.2315 N.ar      1 ACP        -0.7058
     31 C4         -1.7870   -2.9477    0.9438 C.ar      1 ACP         0.5729
     32 HOG2        0.3831   10.0099   -1.0187 H         1 ACP         0.4440
     33 HOG3       -0.1442    7.4778   -2.2701 H         1 ACP         0.4440
     34 H3B1       -0.0279    7.2877    1.4793 H         1 ACP         0.1084
     35 H3B2       -1.3674    8.3269    1.9566 H         1 ACP         0.1084
     36 H5'1       -1.7769    2.7852    2.1386 H         1 ACP         0.0281
     37 H5'2       -1.1652    2.0544    0.6320 H         1 ACP         0.0281
     38 H4'         0.0403    1.7078    3.4343 H         1 ACP         0.1082
     39 H3'         1.5906    1.4859    1.1353 H         1 ACP         0.0650
     40 HO3'        2.6839   -0.1150    2.2479 H         1 ACP         0.4300
     41 H2'        -0.0017    0.0018    0.0005 H         1 ACP         0.0785
     42 HO2'        0.9369   -2.0558    0.0825 H         1 ACP         0.4275
     43 H1'        -0.1998   -1.6319    2.6178 H         1 ACP         0.1009
     44 H8         -3.0609    0.0200    0.8250 H         1 ACP         0.1067
     45 HN61       -5.2046   -3.9433   -0.8775 H         1 ACP         0.4213
     46 HN62       -4.7849   -5.6332   -0.9625 H         1 ACP         0.4213
     47 H2         -0.6318   -5.9307    0.9993 H         1 ACP         0.0365
@<TRIPOS>BOND
     1    1    2 2
     2    1    3 1
     3    1    4 1
     4    1    8 1
     5    3   32 1
     6    4   33 1
     7    5    6 2
     8    5    7 1
     9    5    8 1
    10    5   12 1
    11    8   34 1
    12    8   35 1
    13    9   10 2
    14    9   11 1
    15    9   12 1
    16    9   13 1
    17   13   14 1
    18   14   15 1
    19   14   36 1
    20   14   37 1
    21   15   16 1
    22   15   17 1
    23   15   38 1
    24   16   21 1
    25   17   18 1
    26   17   19 1
    27   17   39 1
    28   18   40 1
    29   19   20 1
    30   19   21 1
    31   19   41 1
    32   20   42 1
    33   21   22 1
    34   21   43 1
    35   22   23 ar
    36   22   31 ar
    37   23   24 ar
    38   23   44 1
    39   24   25 ar
    40   25   26 ar
    41   25   31 ar
    42   26   27 1
    43   26   28 ar
    44   27   45 1
    45   27   46 1
    46   28   29 ar
    47   29   30 ar
    48   29   47 1
    49   30   31 ar
@<TRIPOS>SUBSTRUCTURE
     1 ACP         1 GROUP 0 A     ****
@<TRIPOS>MOLECULE
[[5-(6-aminopurin-9-yl)-3,4-dihydroxy-tetrahydrofuran-2-yl]methoxy-oxido-phosphoryl]oxy-(phosphonomethyl)phosphinate
   47    49     1     0     0
SMALL
USER_CHARGES

@<TRIPOS>ATOM
      1 PG         -4.2778    5.6087   -2.2837 P.3       1 ACP         1.6478
      2 O1G        -5.5506    6.3571   -2.0249 O.2       1 ACP        -0.9103
      3 O2G        -2.9233    6.3671   -1.8359 O.3       1 ACP        -0.7989
      4 O3G        -4.0032    5.2218   -3.8279 O.3       1 ACP        -0.7989
      5 PB         -4.2277    3.8513    0.4069 P.3       1 ACP         1.4947
      6 O1B        -4.1002    2.3803    0.7284 O.co2     1 ACP        -0.8554
      7 O2B        -5.3894    4.6862    0.8937 O.co2     1 ACP        -0.8554
      8 C3B        -4.1621    4.0180   -1.4340 C.3       1 ACP        -0.6550
      9 PA         -2.0037    4.7529    2.1525 P.3       1 ACP         1.5921
     10 O1A        -2.9381    5.3267    3.1957 O.co2     1 ACP        -0.8561
     11 O2A        -0.6728    5.4124    1.8637 O.co2     1 ACP        -0.8561
     12 O3A        -2.8235    4.6072    0.7474 O.3       1 ACP        -0.8166
     13 O5'        -1.7337    3.1724    2.4754 O.3       1 ACP        -0.5737
     14 C5'        -0.8811    2.4285    1.6206 C.3       1 ACP         0.2197
     15 C4'        -0.1994    1.3333    2.4288 C.3       1 ACP         0.0944
     16 O4'        -1.1285    0.2356    2.5840 O.3       1 ACP        -0.4017
     17 C3'         1.0324    0.7610    1.7344 C.3       1 ACP         0.0859
     18 O3'         1.9175    0.2377    2.7247 O.3       1 ACP        -0.5941
     19 C2'         0.4468   -0.3802    0.9263 C.3       1 ACP         0.0924
     20 O2'         1.3993   -1.3703    0.5961 O.3       1 ACP        -0.5928
     21 C1'        -0.6159   -0.9100    1.8769 C.3       1 ACP         0.3967
     22 N9         -1.7127   -1.6108    1.2130 N.pl3     1 ACP        -0.6763
     23 C8         -2.0877   -2.9101    1.4304 C.ar      1 ACP         0.5586
     24 N7         -3.1152   -3.2613    0.6857 N.2       1 ACP        -0.5795
     25 C5         -3.4186   -2.1409   -0.0462 C.ar      1 ACP        -0.2116
     26 C6         -4.3953   -1.8809   -1.0023 C.ar      1 ACP         0.7185
     27 N6         -5.3118   -2.8767   -1.3812 N.pl3     1 ACP        -0.9442
     28 N1         -4.4538   -0.6507   -1.5667 N.ar      1 ACP        -0.8040
     29 C2         -3.5442    0.2679   -1.1609 C.ar      1 ACP         0.6560
     30 N3         -2.5561    0.1361   -0.2491 N.ar      1 ACP        -0.7058
     31 C4         -2.5568   -1.1019    0.2674 C.ar      1 ACP         0.5729
     32 HOG2       -2.7102    7.2359   -2.2382 H         1 ACP         0.4440
     33 HOG3       -3.9325    5.9399   -4.4923 H         1 ACP         0.4440
     34 H3B1       -4.9666    3.3794   -1.8160 H         1 ACP         0.1084
     35 H3B2       -3.2160    3.5588   -1.7424 H         1 ACP         0.1084
     36 H5'1       -1.4802    1.9929    0.8148 H         1 ACP         0.0281
     37 H5'2       -0.1370    3.1043    1.1873 H         1 ACP         0.0281
     38 H4'         0.0403    1.7078    3.4343 H         1 ACP         0.1082
     39 H3'         1.5906    1.4859    1.1353 H         1 ACP         0.0650
     40 HO3'        2.6839   -0.1150    2.2479 H         1 ACP         0.4300
     41 H2'        -0.0017    0.0018    0.0005 H         1 ACP         0.0785
     42 HO2'        2.0953   -0.9375    0.0709 H         1 ACP         0.4275
     43 H1'        -0.1998   -1.6319    2.6178 H         1 ACP         0.1009
     44 H8         -1.5778   -3.5473    2.1399 H         1 ACP         0.1067
     45 HN61       -5.2294   -3.7965   -0.9914 H         1 ACP         0.4213
     46 HN62       -5.9774   -2.6837   -2.1055 H         1 ACP         0.4213
     47 H2         -3.6201    1.2414   -1.6336 H         1 ACP         0.0365
@<TRIPOS>BOND
     1    1    2 2
     2    1    3 1
     3    1    4 1
     4    1    8 1
     5    3   32 1
     6    4   33 1
     7    5    6 2
     8    5    7 1
     9    5    8 1
    10    5   12 1
    11    8   34 1
    12    8   35 1
    13    9   10 2
    14    9   11 1
    15    9   12 1
    16    9   13 1
    17   13   14 1
    18   14   15 1
    19   14   36 1
    20   14   37 1
    21   15   16 1
    22   15   17 1
    23   15   38 1
    24   16   21 1
    25   17   18 1
    26   17   19 1
    27   17   39 1
    28   18   40 1
    29   19   20 1
    30   19   21 1
    31   19   41 1
    32   20   42 1
    33   21   22 1
    34   21   43 1
    35   22   23 ar
    36   22   31 ar
    37   23   24 ar
    38   23   44 1
    39   24   25 ar
    40   25   26 ar
    41   25   31 ar
    42   26   27 1
    43   26   28 ar
    44   27   45 1
    45   27   46 1
    46   28   29 ar
    47   29   30 ar
    48   29   47 1
    49   30   31 ar
@<TRIPOS>SUBSTRUCTURE
     1 ACP         1 GROUP 0 A     ****
@<TRIPOS>MOLECULE
[[5-(6-aminopurin-9-yl)-3,4-dihydroxy-tetrahydrofuran-2-yl]methoxy-oxido-phosphoryl]oxy-(phosphonomethyl)phosphinate
   47    49     1     0     0
SMALL
USER_CHARGES

@<TRIPOS>ATOM
      1 PG          8.2381   -2.3887   -1.5155 P.3       1 ACP         1.6478
      2 O1G         8.6646   -1.0611   -2.0658 O.2       1 ACP        -0.9103
      3 O2G         9.1242   -2.9470   -0.2852 O.3       1 ACP        -0.7989
      4 O3G         8.2433   -3.6107   -2.5720 O.3       1 ACP        -0.7989
      5 PB          5.9944   -1.3342    0.5299 P.3       1 ACP         1.4947
      6 O1B         6.8538   -1.6631    1.7286 O.co2     1 ACP        -0.8554
      7 O2B         4.4855   -1.4031    0.5752 O.co2     1 ACP        -0.8554
      8 C3B         6.5543   -2.4181   -0.8602 C.3       1 ACP        -0.6550
      9 PA          5.8978    0.9307   -1.3850 P.3       1 ACP         1.5921
     10 O1A         5.9190    0.0229   -2.5958 O.co2     1 ACP        -0.8561
     11 O2A         6.5864    2.2777   -1.4195 O.co2     1 ACP        -0.8561
     12 O3A         6.4633    0.0945   -0.1011 O.3       1 ACP        -0.8166
     13 O5'         4.3514    1.1573   -0.9028 O.3       1 ACP        -0.5737
     14 C5'         4.0922    1.9801    0.2227 C.3       1 ACP         0.2197
     15 C4'         2.5944    2.0310    0.4653 C.3       1 ACP         0.0944
     16 O4'         1.9327    2.5740   -0.6889 O.3       1 ACP        -0.4017
     17 C3'         1.9685    0.6634    0.6767 C.3       1 ACP         0.0859
     18 O3'         2.1425    0.1975    1.9977 O.3       1 ACP        -0.5941
     19 C2'         0.5176    0.9128    0.3099 C.3       1 ACP         0.0924
     20 O2'        -0.2103    1.4454    1.4152 O.3       1 ACP        -0.5928
     21 C1'         0.6219    1.9765   -0.7844 C.3       1 ACP         0.3967
     22 N9          0.4237    1.4496   -2.1357 N.pl3     1 ACP        -0.6763
     23 C8          1.4026    0.9717   -2.9660 C.ar      1 ACP         0.5586
     24 N7          0.9183    0.5619   -4.1197 N.2       1 ACP        -0.5795
     25 C5         -0.4330    0.7845   -4.0331 C.ar      1 ACP        -0.2116
     26 C6         -1.4794    0.5615   -4.9225 C.ar      1 ACP         0.7185
     27 N6         -1.2378    0.0044   -6.1899 N.pl3     1 ACP        -0.9442
     28 N1         -2.7406    0.8885   -4.5512 N.ar      1 ACP        -0.8040
     29 C2         -2.9113    1.4216   -3.3172 C.ar      1 ACP         0.6560
     30 N3         -1.9824    1.6843   -2.3721 N.ar      1 ACP        -0.7058
     31 C4         -0.7613    1.3370   -2.8054 C.ar      1 ACP         0.5729
     32 HOG2       10.0823   -3.1049   -0.4231 H         1 ACP         0.4440
     33 HOG3        9.0854   -3.8558   -3.0110 H         1 ACP         0.4440
     34 H3B1        5.8720   -2.2067   -1.6913 H         1 ACP         0.1084
     35 H3B2        6.3549   -3.4461   -0.5369 H         1 ACP         0.1084
     36 H5'1        4.6070    1.5616    1.0933 H         1 ACP         0.0281
     37 H5'2        4.4825    2.9835    0.0251 H         1 ACP         0.0281
     38 H4'         2.3751    2.7029    1.3156 H         1 ACP         0.1082
     39 H3'         2.4336   -0.1217   -0.0015 H         1 ACP         0.0650
     40 HO3'        3.0987    0.1465    2.1461 H         1 ACP         0.4300
     41 H2'         0.0316    0.0155   -0.0339 H         1 ACP         0.0785
     42 HO2'       -1.1270    1.5823    1.1180 H         1 ACP         0.4275
     43 H1'        -0.1474    2.7798   -0.6651 H         1 ACP         0.1009
     44 H8          2.4442    0.9470   -2.6763 H         1 ACP         0.1067
     45 HN61       -0.2955   -0.1901   -6.4713 H         1 ACP         0.4213
     46 HN62       -1.9987   -0.1045   -6.8334 H         1 ACP         0.4213
     47 H2         -3.9335    1.6716   -3.0534 H         1 ACP         0.0365
@<TRIPOS>BOND
     1    1    2 2
     2    1    3 1
     3    1    4 1
     4    1    8 1
     5    3   32 1
     6    4   33 1
     7    5    6 2
     8    5    7 1
     9    5    8 1
    10    5   12 1
    11    8   34 1
    12    8   35 1
    13    9   10 2
    14    9   11 1
    15    9   12 1
    16    9   13 1
    17   13   14 1
    18   14   15 1
    19   14   36 1
    20   14   37 1
    21   15   16 1
    22   15   17 1
    23   15   38 1
    24   16   21 1
    25   17   18 1
    26   17   19 1
    27   17   39 1
    28   18   40 1
    29   19   20 1
    30   19   21 1
    31   19   41 1
    32   20   42 1
    33   21   22 1
    34   21   43 1
    35   22   23 ar
    36   22   31 ar
    37   23   24 ar
    38   23   44 1
    39   24   25 ar
    40   25   26 ar
    41   25   31 ar
    42   26   27 1
    43   26   28 ar
    44   27   45 1
    45   27   46 1
    46   28   29 ar
    47   29   30 ar
    48   29   47 1
    49   30   31 ar
@<TRIPOS>SUBSTRUCTURE
     1 ACP         1 GROUP 0 A     ****
@<TRIPOS>MOLECULE
[[5-(6-aminopurin-9-yl)-3,4-dihydroxy-tetrahydrofuran-2-yl]methoxy-oxido-phosphoryl]oxy-(phosphonomethyl)phosphinate
   47    49     1     0     0
SMALL
USER_CHARGES

@<TRIPOS>ATOM
      1 PG          4.1570   -0.2887   -3.9129 P.3       1 ACP         1.6478
      2 O1G         5.5724    0.0181   -4.2999 O.2       1 ACP        -0.9103
      3 O2G         3.4382    0.8156   -2.9780 O.3       1 ACP        -0.7989
      4 O3G         3.9442   -1.6692   -3.1014 O.3       1 ACP        -0.7989
      5 PB          1.2216   -0.8285   -5.1055 P.3       1 ACP         1.4947
      6 O1B         1.1193   -2.1603   -4.3990 O.co2     1 ACP        -0.8554
      7 O2B         0.5537   -0.5669   -6.4356 O.co2     1 ACP        -0.8554
      8 C3B         3.0211   -0.4524   -5.3088 C.3       1 ACP        -0.6550
      9 PA          0.8118    1.9901   -4.2726 P.3       1 ACP         1.5921
     10 O1A        -0.3068    2.3135   -5.2395 O.co2     1 ACP        -0.8561
     11 O2A         2.2194    2.4825   -4.5299 O.co2     1 ACP        -0.8561
     12 O3A         0.8616    0.3713   -4.0614 O.3       1 ACP        -0.8166
     13 O5'         0.3757    2.4482   -2.7643 O.3       1 ACP        -0.5737
     14 C5'        -0.7794    1.8744   -2.1748 C.3       1 ACP         0.2197
     15 C4'        -0.9699    2.4597   -0.7819 C.3       1 ACP         0.0944
     16 O4'        -2.1475    1.8640   -0.2014 O.3       1 ACP        -0.4017
     17 C3'         0.1697    2.1347    0.1695 C.3       1 ACP         0.0859
     18 O3'         0.1809    3.0982    1.2223 O.3       1 ACP        -0.5941
     19 C2'        -0.2543    0.7880    0.7187 C.3       1 ACP         0.0924
     20 O2'         0.3606    0.4944    1.9582 O.3       1 ACP        -0.5928
     21 C1'        -1.7682    0.9516    0.8548 C.3       1 ACP         0.3967
     22 N9         -2.5926   -0.2553    0.7436 N.pl3     1 ACP        -0.6763
     23 C8         -3.1120   -0.7726   -0.4135 C.ar      1 ACP         0.5586
     24 N7         -3.8089   -1.8688   -0.1980 N.2       1 ACP        -0.5795
     25 C5         -3.7380   -2.0700    1.1576 C.ar      1 ACP        -0.2116
     26 C6         -4.2662   -3.0526    1.9890 C.ar      1 ACP         0.7185
     27 N6         -5.0420   -4.0987    1.4609 N.pl3     1 ACP        -0.9442
     28 N1         -4.0226   -2.9899    3.3202 N.ar      1 ACP        -0.8040
     29 C2         -3.2679   -1.9585    3.7704 C.ar      1 ACP         0.6560
     30 N3         -2.7045   -0.9514    3.0680 N.ar      1 ACP        -0.7058
     31 C4         -2.9852   -1.0761    1.7622 C.ar      1 ACP         0.5729
     32 HOG2        3.8273    1.0220   -2.1016 H         1 ACP         0.4440
     33 HOG3        4.4001   -1.7900   -2.2415 H         1 ACP         0.4440
     34 H3B1        3.0637    0.4809   -5.8815 H         1 ACP         0.1084
     35 H3B2        3.4205   -1.2422   -5.9552 H         1 ACP         0.1084
     36 H5'1       -1.6462    2.0968   -2.8052 H         1 ACP         0.0281
     37 H5'2       -0.6469    0.7893   -2.1194 H         1 ACP         0.0281
     38 H4'        -1.1469    3.5409   -0.8522 H         1 ACP         0.1082
     39 H3'         1.1601    2.1310   -0.2934 H         1 ACP         0.0650
     40 HO3'        0.3098    3.9616    0.8017 H         1 ACP         0.4300
     41 H2'        -0.0024   -0.0091    0.0062 H         1 ACP         0.0785
     42 HO2'        0.0384   -0.3797    2.2403 H         1 ACP         0.4275
     43 H1'        -2.0584    1.4255    1.8301 H         1 ACP         0.1009
     44 H8         -2.9491   -0.3098   -1.3772 H         1 ACP         0.1067
     45 HN61       -5.3737   -4.8224    2.0701 H         1 ACP         0.4213
     46 HN62       -5.1756   -4.1610    0.4694 H         1 ACP         0.4213
     47 H2         -3.0933   -1.9395    4.8410 H         1 ACP         0.0365
@<TRIPOS>BOND
     1    1    2 2
     2    1    3 1
     3    1    4 1
     4    1    8 1
     5    3   32 1
     6    4   33 1
     7    5    6 2
     8    5    7 1
     9    5    8 1
    10    5   12 1
    11    8   34 1
    12    8   35 1
    13    9   10 2
    14    9   11 1
    15    9   12 1
    16    9   13 1
    17   13   14 1
    18   14   15 1
    19   14   36 1
    20   14   37 1
    21   15   16 1
    22   15   17 1
    23   15   38 1
    24   16   21 1
    25   17   18 1
    26   17   19 1
    27   17   39 1
    28   18   40 1
    29   19   20 1
    30   19   21 1
    31   19   41 1
    32   20   42 1
    33   21   22 1
    34   21   43 1
    35   22   23 ar
    36   22   31 ar
    37   23   24 ar
    38   23   44 1
    39   24   25 ar
    40   25   26 ar
    41   25   31 ar
    42   26   27 1
    43   26   28 ar
    44   27   45 1
    45   27   46 1
    46   28   29 ar
    47   29   30 ar
    48   29   47 1
    49   30   31 ar
@<TRIPOS>SUBSTRUCTURE
     1 ACP         1 GROUP 0 A     ****
@<TRIPOS>MOLECULE
[[5-(6-aminopurin-9-yl)-3,4-dihydroxy-tetrahydrofuran-2-yl]methoxy-oxido-phosphoryl]oxy-(phosphonomethyl)phosphinate
   47    49     1     0     0
SMALL
USER_CHARGES

@<TRIPOS>ATOM
      1 PG         -0.4657    4.1300   -8.0152 P.3       1 ACP         1.6478
      2 O1G         0.3280    5.1186   -8.8152 O.2       1 ACP        -0.9103
      3 O2G         0.3225    2.7831   -7.5971 O.3       1 ACP        -0.7989
      4 O3G        -1.8067    3.5792   -8.7279 O.3       1 ACP        -0.7989
      5 PB         -2.0738    3.7484   -5.2586 P.3       1 ACP         1.4947
      6 O1B        -3.3318    3.3335   -5.9858 O.co2     1 ACP        -0.8554
      7 O2B        -2.1096    4.4886   -3.9416 O.co2     1 ACP        -0.8554
      8 C3B        -1.0702    4.7638   -6.4345 C.3       1 ACP        -0.6550
      9 PA          0.4195    2.3431   -4.4746 P.3       1 ACP         1.5921
     10 O1A         1.3126    3.4107   -5.0688 O.co2     1 ACP        -0.8561
     11 O2A         0.8324    0.8876   -4.5060 O.co2     1 ACP        -0.8561
     12 O3A        -1.0625    2.4739   -5.1484 O.3       1 ACP        -0.8166
     13 O5'         0.0526    2.7390   -2.9307 O.3       1 ACP        -0.5737
     14 C5'        -0.7794    1.8744   -2.1748 C.3       1 ACP         0.2197
     15 C4'        -0.9699    2.4597   -0.7819 C.3       1 ACP         0.0944
     16 O4'        -2.1475    1.8640   -0.2014 O.3       1 ACP        -0.4017
     17 C3'         0.1697    2.1347    0.1695 C.3       1 ACP         0.0859
     18 O3'         0.1809    3.0982    1.2223 O.3       1 ACP        -0.5941
     19 C2'        -0.2543    0.7880    0.7187 C.3       1 ACP         0.0924
     20 O2'         0.3606    0.4944    1.9582 O.3       1 ACP        -0.5928
     21 C1'        -1.7682    0.9516    0.8548 C.3       1 ACP         0.3967
     22 N9         -2.5926   -0.2553    0.7436 N.pl3     1 ACP        -0.6763
     23 C8         -3.4452   -0.7398    1.6998 C.ar      1 ACP         0.5586
     24 N7         -4.0528   -1.8413    1.3109 N.2       1 ACP        -0.5795
     25 C5         -3.5725   -2.0808    0.0480 C.ar      1 ACP        -0.2116
     26 C6         -3.8302   -3.0862   -0.8786 C.ar      1 ACP         0.7185
     27 N6         -4.7399   -4.1165   -0.5855 N.pl3     1 ACP        -0.9442
     28 N1         -3.1915   -3.0606   -2.0731 N.ar      1 ACP        -0.8040
     29 C2         -2.3264   -2.0424   -2.2985 C.ar      1 ACP         0.6560
     30 N3         -1.9948   -1.0167   -1.4843 N.ar      1 ACP        -0.7058
     31 C4         -2.6619   -1.1046   -0.3238 C.ar      1 ACP         0.5729
     32 HOG2        0.6797    2.2033   -8.3029 H         1 ACP         0.4440
     33 HOG3       -1.7298    3.1043   -9.5826 H         1 ACP         0.4440
     34 H3B1       -0.2013    5.1054   -5.8608 H         1 ACP         0.1084
     35 H3B2       -1.6754    5.6504   -6.6559 H         1 ACP         0.1084
     36 H5'1       -1.7434    1.7764   -2.6839 H         1 ACP         0.0281
     37 H5'2       -0.3052    0.8897   -2.1149 H         1 ACP         0.0281
     38 H4'        -1.1469    3.5409   -0.8522 H         1 ACP         0.1082
     39 H3'         1.1601    2.1310   -0.2934 H         1 ACP         0.0650
     40 HO3'        0.9173    2.8584    1.8048 H         1 ACP         0.4300
     41 H2'        -0.0024   -0.0091    0.0062 H         1 ACP         0.0785
     42 HO2'        0.0384   -0.3797    2.2403 H         1 ACP         0.4275
     43 H1'        -2.0584    1.4255    1.8301 H         1 ACP         0.1009
     44 H8         -3.5812   -0.2495    2.6541 H         1 ACP         0.1067
     45 HN61       -5.1710   -4.1509    0.3189 H         1 ACP         0.4213
     46 HN62       -4.8760   -4.8567   -1.2476 H         1 ACP         0.4213
     47 H2         -1.8329   -2.0536   -3.2645 H         1 ACP         0.0365
@<TRIPOS>BOND
     1    1    2 2
     2    1    3 1
     3    1    4 1
     4    1    8 1
     5    3   32 1
     6    4   33 1
     7    5    6 2
     8    5    7 1
     9    5    8 1
    10    5   12 1
    11    8   34 1
    12    8   35 1
    13    9   10 2
    14    9   11 1
    15    9   12 1
    16    9   13 1
    17   13   14 1
    18   14   15 1
    19   14   36 1
    20   14   37 1
    21   15   16 1
    22   15   17 1
    23   15   38 1
    24   16   21 1
    25   17   18 1
    26   17   19 1
    27   17   39 1
    28   18   40 1
    29   19   20 1
    30   19   21 1
    31   19   41 1
    32   20   42 1
    33   21   22 1
    34   21   43 1
    35   22   23 ar
    36   22   31 ar
    37   23   24 ar
    38   23   44 1
    39   24   25 ar
    40   25   26 ar
    41   25   31 ar
    42   26   27 1
    43   26   28 ar
    44   27   45 1
    45   27   46 1
    46   28   29 ar
    47   29   30 ar
    48   29   47 1
    49   30   31 ar
@<TRIPOS>SUBSTRUCTURE
     1 ACP         1 GROUP 0 A     ****
@<TRIPOS>MOLECULE
[[5-(6-aminopurin-9-yl)-3,4-dihydroxy-tetrahydrofuran-2-yl]methoxy-oxido-phosphoryl]oxy-(phosphonomethyl)phosphinate
   47    49     1     0     0
SMALL
USER_CHARGES

@<TRIPOS>ATOM
      1 PG         -0.4657    4.1300   -8.0152 P.3       1 ACP         1.6478
      2 O1G         0.3280    5.1186   -8.8152 O.2       1 ACP        -0.9103
      3 O2G         0.3225    2.7831   -7.5971 O.3       1 ACP        -0.7989
      4 O3G        -1.8067    3.5792   -8.7279 O.3       1 ACP        -0.7989
      5 PB         -2.0738    3.7484   -5.2586 P.3       1 ACP         1.4947
      6 O1B        -3.3318    3.3335   -5.9858 O.co2     1 ACP        -0.8554
      7 O2B        -2.1096    4.4886   -3.9416 O.co2     1 ACP        -0.8554
      8 C3B        -1.0702    4.7638   -6.4345 C.3       1 ACP        -0.6550
      9 PA          0.4195    2.3431   -4.4746 P.3       1 ACP         1.5921
     10 O1A         1.3126    3.4107   -5.0688 O.co2     1 ACP        -0.8561
     11 O2A         0.8324    0.8876   -4.5060 O.co2     1 ACP        -0.8561
     12 O3A        -1.0625    2.4739   -5.1484 O.3       1 ACP        -0.8166
     13 O5'         0.0526    2.7390   -2.9307 O.3       1 ACP        -0.5737
     14 C5'        -0.7794    1.8744   -2.1748 C.3       1 ACP         0.2197
     15 C4'        -0.9699    2.4597   -0.7819 C.3       1 ACP         0.0944
     16 O4'        -2.1475    1.8640   -0.2014 O.3       1 ACP        -0.4017
     17 C3'         0.1697    2.1347    0.1695 C.3       1 ACP         0.0859
     18 O3'         0.1809    3.0982    1.2223 O.3       1 ACP        -0.5941
     19 C2'        -0.2543    0.7880    0.7187 C.3       1 ACP         0.0924
     20 O2'         0.3606    0.4944    1.9582 O.3       1 ACP        -0.5928
     21 C1'        -1.7682    0.9516    0.8548 C.3       1 ACP         0.3967
     22 N9         -2.5926   -0.2553    0.7436 N.pl3     1 ACP        -0.6763
     23 C8         -2.6465   -1.0979   -0.3350 C.ar      1 ACP         0.5586
     24 N7         -3.4765   -2.1012   -0.1400 N.2       1 ACP        -0.5795
     25 C5         -3.9826   -1.8994    1.1194 C.ar      1 ACP        -0.2116
     26 C6         -4.8981   -2.6116    1.8877 C.ar      1 ACP         0.7185
     27 N6         -5.4931   -3.7842    1.3916 N.pl3     1 ACP        -0.9442
     28 N1         -5.2111   -2.1602    3.1262 N.ar      1 ACP        -0.8040
     29 C2         -4.6051   -1.0248    3.5500 C.ar      1 ACP         0.6560
     30 N3         -3.7075   -0.2510    2.9016 N.ar      1 ACP        -0.7058
     31 C4         -3.4448   -0.7551    1.6866 C.ar      1 ACP         0.5729
     32 HOG2        0.6797    2.2033   -8.3029 H         1 ACP         0.4440
     33 HOG3       -1.7298    3.1043   -9.5826 H         1 ACP         0.4440
     34 H3B1       -0.2013    5.1054   -5.8608 H         1 ACP         0.1084
     35 H3B2       -1.6754    5.6504   -6.6559 H         1 ACP         0.1084
     36 H5'1       -1.7434    1.7764   -2.6839 H         1 ACP         0.0281
     37 H5'2       -0.3052    0.8897   -2.1149 H         1 ACP         0.0281
     38 H4'        -1.1469    3.5409   -0.8522 H         1 ACP         0.1082
     39 H3'         1.1601    2.1310   -0.2934 H         1 ACP         0.0650
     40 HO3'        0.9173    2.8584    1.8048 H         1 ACP         0.4300
     41 H2'        -0.0024   -0.0091    0.0062 H         1 ACP         0.0785
     42 HO2'        0.0384   -0.3797    2.2403 H         1 ACP         0.4275
     43 H1'        -2.0584    1.4255    1.8301 H         1 ACP         0.1009
     44 H8         -2.0609   -0.9301   -1.2286 H         1 ACP         0.1067
     45 HN61       -5.2894   -4.0827    0.4566 H         1 ACP         0.4213
     46 HN62       -6.1852   -4.2564    1.9420 H         1 ACP         0.4213
     47 H2         -4.8793   -0.6924    4.5457 H         1 ACP         0.0365
@<TRIPOS>BOND
     1    1    2 2
     2    1    3 1
     3    1    4 1
     4    1    8 1
     5    3   32 1
     6    4   33 1
     7    5    6 2
     8    5    7 1
     9    5    8 1
    10    5   12 1
    11    8   34 1
    12    8   35 1
    13    9   10 2
    14    9   11 1
    15    9   12 1
    16    9   13 1
    17   13   14 1
    18   14   15 1
    19   14   36 1
    20   14   37 1
    21   15   16 1
    22   15   17 1
    23   15   38 1
    24   16   21 1
    25   17   18 1
    26   17   19 1
    27   17   39 1
    28   18   40 1
    29   19   20 1
    30   19   21 1
    31   19   41 1
    32   20   42 1
    33   21   22 1
    34   21   43 1
    35   22   23 ar
    36   22   31 ar
    37   23   24 ar
    38   23   44 1
    39   24   25 ar
    40   25   26 ar
    41   25   31 ar
    42   26   27 1
    43   26   28 ar
    44   27   45 1
    45   27   46 1
    46   28   29 ar
    47   29   30 ar
    48   29   47 1
    49   30   31 ar
@<TRIPOS>SUBSTRUCTURE
     1 ACP         1 GROUP 0 A     ****
@<TRIPOS>MOLECULE
[[5-(6-aminopurin-9-yl)-3,4-dihydroxy-tetrahydrofuran-2-yl]methoxy-oxido-phosphoryl]oxy-(phosphonomethyl)phosphinate
   47    49     1     0     0
SMALL
USER_CHARGES

@<TRIPOS>ATOM
      1 PG         -1.0323    8.3639   -0.3904 P.3       1 ACP         1.6478
      2 O1G        -2.3658    8.8692   -0.8526 O.2       1 ACP        -0.9103
      3 O2G         0.1185    9.4868   -0.2323 O.3       1 ACP        -0.7989
      4 O3G        -0.3473    7.2493   -1.3381 O.3       1 ACP        -0.7989
      5 PB         -2.0802    6.0698    1.6018 P.3       1 ACP         1.4947
      6 O1B        -3.5245    6.4424    1.3598 O.co2     1 ACP        -0.8554
      7 O2B        -1.6005    5.5129    2.9222 O.co2     1 ACP        -0.8554
      8 C3B        -1.0583    7.5661    1.2308 C.3       1 ACP        -0.6550
      9 PA         -0.0885    4.4445    0.1193 P.3       1 ACP         1.5921
     10 O1A         0.9671    5.5276    0.1742 O.co2     1 ACP        -0.8561
     11 O2A        -0.1962    3.5335   -1.0842 O.co2     1 ACP        -0.8561
     12 O3A        -1.5478    5.1301    0.3800 O.3       1 ACP        -0.8166
     13 O5'         0.0182    3.5132    1.4596 O.3       1 ACP        -0.5737
     14 C5'        -0.8811    2.4285    1.6206 C.3       1 ACP         0.2197
     15 C4'        -0.1994    1.3333    2.4288 C.3       1 ACP         0.0944
     16 O4'        -1.1285    0.2356    2.5840 O.3       1 ACP        -0.4017
     17 C3'         1.0324    0.7610    1.7344 C.3       1 ACP         0.0859
     18 O3'         1.9175    0.2377    2.7247 O.3       1 ACP        -0.5941
     19 C2'         0.4468   -0.3802    0.9263 C.3       1 ACP         0.0924
     20 O2'         1.3993   -1.3703    0.5961 O.3       1 ACP        -0.5928
     21 C1'        -0.6159   -0.9100    1.8769 C.3       1 ACP         0.3967
     22 N9         -1.7127   -1.6108    1.2130 N.pl3     1 ACP        -0.6763
     23 C8         -1.7712   -2.9546    0.9544 C.ar      1 ACP         0.5586
     24 N7         -2.8883   -3.2948    0.3462 N.2       1 ACP        -0.5795
     25 C5         -3.5834   -2.1202    0.2043 C.ar      1 ACP        -0.2116
     26 C6         -4.8225   -1.8251   -0.3554 C.ar      1 ACP         0.7185
     27 N6         -5.6154   -2.8394   -0.9189 N.pl3     1 ACP        -0.9442
     28 N1         -5.2589   -0.5425   -0.3507 N.ar      1 ACP        -0.8040
     29 C2         -4.4510    0.3913    0.2069 C.ar      1 ACP         0.6560
     30 N3         -3.2368    0.2296    0.7767 N.ar      1 ACP        -0.7058
     31 C4         -2.8684   -1.0596    0.7376 C.ar      1 ACP         0.5729
     32 HOG2        0.3831   10.0099   -1.0187 H         1 ACP         0.4440
     33 HOG3       -0.1442    7.4778   -2.2701 H         1 ACP         0.4440
     34 H3B1       -0.0279    7.2877    1.4793 H         1 ACP         0.1084
     35 H3B2       -1.3674    8.3269    1.9566 H         1 ACP         0.1084
     36 H5'1       -1.7769    2.7852    2.1386 H         1 ACP         0.0281
     37 H5'2       -1.1652    2.0544    0.6320 H         1 ACP         0.0281
     38 H4'         0.0403    1.7078    3.4343 H         1 ACP         0.1082
     39 H3'         1.5906    1.4859    1.1353 H         1 ACP         0.0650
     40 HO3'        2.6839   -0.1150    2.2479 H         1 ACP         0.4300
     41 H2'        -0.0017    0.0018    0.0005 H         1 ACP         0.0785
     42 HO2'        0.9369   -2.0558    0.0825 H         1 ACP         0.4275
     43 H1'        -0.1998   -1.6319    2.6178 H         1 ACP         0.1009
     44 H8         -0.9745   -3.6312    1.2318 H         1 ACP         0.1067
     45 HN61       -5.2619   -3.7766   -0.9586 H         1 ACP         0.4213
     46 HN62       -6.4834   -2.5990   -1.3590 H         1 ACP         0.4213
     47 H2         -4.8317    1.4071    0.1930 H         1 ACP         0.0365
@<TRIPOS>BOND
     1    1    2 2
     2    1    3 1
     3    1    4 1
     4    1    8 1
     5    3   32 1
     6    4   33 1
     7    5    6 2
     8    5    7 1
     9    5    8 1
    10    5   12 1
    11    8   34 1
    12    8   35 1
    13    9   10 2
    14    9   11 1
    15    9   12 1
    16    9   13 1
    17   13   14 1
    18   14   15 1
    19   14   36 1
    20   14   37 1
    21   15   16 1
    22   15   17 1
    23   15   38 1
    24   16   21 1
    25   17   18 1
    26   17   19 1
    27   17   39 1
    28   18   40 1
    29   19   20 1
    30   19   21 1
    31   19   41 1
    32   20   42 1
    33   21   22 1
    34   21   43 1
    35   22   23 ar
    36   22   31 ar
    37   23   24 ar
    38   23   44 1
    39   24   25 ar
    40   25   26 ar
    41   25   31 ar
    42   26   27 1
    43   26   28 ar
    44   27   45 1
    45   27   46 1
    46   28   29 ar
    47   29   30 ar
    48   29   47 1
    49   30   31 ar
@<TRIPOS>SUBSTRUCTURE
     1 ACP         1 GROUP 0 A     ****
@<TRIPOS>MOLECULE
[[5-(6-aminopurin-9-yl)-3,4-dihydroxy-tetrahydrofuran-2-yl]methoxy-oxido-phosphoryl]oxy-(phosphonomethyl)phosphinate
   47    49     1     0     0
SMALL
USER_CHARGES

@<TRIPOS>ATOM
      1 PG         -5.3339    0.9358   -1.9782 P.3       1 ACP         1.6478
      2 O1G        -4.0915    0.2298   -1.5251 O.2       1 ACP        -0.9103
      3 O2G        -6.6488    0.6738   -1.0768 O.3       1 ACP        -0.7989
      4 O3G        -5.8242    0.5827   -3.4763 O.3       1 ACP        -0.7989
      5 PB         -4.8299    3.7419   -0.4942 P.3       1 ACP         1.4947
      6 O1B        -5.9329    3.4752    0.5038 O.co2     1 ACP        -0.8554
      7 O2B        -4.4800    5.1373   -0.9567 O.co2     1 ACP        -0.8554
      8 C3B        -5.2006    2.7378   -2.0026 C.3       1 ACP        -0.6550
      9 PA         -1.9976    2.8864   -0.7224 P.3       1 ACP         1.5921
     10 O1A        -1.3773    4.2659   -0.6697 O.co2     1 ACP        -0.8561
     11 O2A        -2.1168    2.1447   -2.0361 O.co2     1 ACP        -0.8561
     12 O3A        -3.4767    2.9572   -0.0335 O.3       1 ACP        -0.8166
     13 O5'        -1.2434    1.9101    0.3513 O.3       1 ACP        -0.5737
     14 C5'        -0.8811    2.4285    1.6206 C.3       1 ACP         0.2197
     15 C4'        -0.1994    1.3333    2.4288 C.3       1 ACP         0.0944
     16 O4'        -1.1285    0.2356    2.5840 O.3       1 ACP        -0.4017
     17 C3'         1.0324    0.7610    1.7344 C.3       1 ACP         0.0859
     18 O3'         1.9175    0.2377    2.7247 O.3       1 ACP        -0.5941
     19 C2'         0.4468   -0.3802    0.9263 C.3       1 ACP         0.0924
     20 O2'         1.3993   -1.3703    0.5961 O.3       1 ACP        -0.5928
     21 C1'        -0.6159   -0.9100    1.8769 C.3       1 ACP         0.3967
     22 N9         -1.7127   -1.6108    1.2130 N.pl3     1 ACP        -0.6763
     23 C8         -2.8641   -1.0399    0.7392 C.ar      1 ACP         0.5586
     24 N7         -3.6659   -1.9257    0.1858 N.2       1 ACP        -0.5795
     25 C5         -3.0053   -3.1223    0.3069 C.ar      1 ACP        -0.2116
     26 C6         -3.3321   -4.4178   -0.0813 C.ar      1 ACP         0.7185
     27 N6         -4.5476   -4.6866   -0.7335 N.pl3     1 ACP        -0.9442
     28 N1         -2.4608   -5.4225    0.1773 N.ar      1 ACP        -0.8040
     29 C2         -1.3053   -5.1020    0.8081 C.ar      1 ACP         0.6560
     30 N3         -0.8788   -3.8921    1.2315 N.ar      1 ACP        -0.7058
     31 C4         -1.7870   -2.9477    0.9438 C.ar      1 ACP         0.5729
     32 HOG2       -6.9837   -0.2430   -0.9804 H         1 ACP         0.4440
     33 HOG3       -6.0503   -0.3461   -3.6958 H         1 ACP         0.4440
     34 H3B1       -4.4251    3.0026   -2.7302 H         1 ACP         0.1084
     35 H3B2       -6.1495    3.1234   -2.3928 H         1 ACP         0.1084
     36 H5'1       -0.2035    3.2759    1.4765 H         1 ACP         0.0281
     37 H5'2       -1.7842    2.7761    2.1320 H         1 ACP         0.0281
     38 H4'         0.0403    1.7078    3.4343 H         1 ACP         0.1082
     39 H3'         1.5906    1.4859    1.1353 H         1 ACP         0.0650
     40 HO3'        2.6839   -0.1150    2.2479 H         1 ACP         0.4300
     41 H2'        -0.0017    0.0018    0.0005 H         1 ACP         0.0785
     42 HO2'        2.0953   -0.9375    0.0709 H         1 ACP         0.4275
     43 H1'        -0.1998   -1.6319    2.6178 H         1 ACP         0.1009
     44 H8         -3.0609    0.0200    0.8250 H         1 ACP         0.1067
     45 HN61       -4.7432   -5.6184   -1.0469 H         1 ACP         0.4213
     46 HN62       -5.1624   -3.9284   -0.9616 H         1 ACP         0.4213
     47 H2         -0.6318   -5.9307    0.9993 H         1 ACP         0.0365
@<TRIPOS>BOND
     1    1    2 2
     2    1    3 1
     3    1    4 1
     4    1    8 1
     5    3   32 1
     6    4   33 1
     7    5    6 2
     8    5    7 1
     9    5    8 1
    10    5   12 1
    11    8   34 1
    12    8   35 1
    13    9   10 2
    14    9   11 1
    15    9   12 1
    16    9   13 1
    17   13   14 1
    18   14   15 1
    19   14   36 1
    20   14   37 1
    21   15   16 1
    22   15   17 1
    23   15   38 1
    24   16   21 1
    25   17   18 1
    26   17   19 1
    27   17   39 1
    28   18   40 1
    29   19   20 1
    30   19   21 1
    31   19   41 1
    32   20   42 1
    33   21   22 1
    34   21   43 1
    35   22   23 ar
    36   22   31 ar
    37   23   24 ar
    38   23   44 1
    39   24   25 ar
    40   25   26 ar
    41   25   31 ar
    42   26   27 1
    43   26   28 ar
    44   27   45 1
    45   27   46 1
    46   28   29 ar
    47   29   30 ar
    48   29   47 1
    49   30   31 ar
@<TRIPOS>SUBSTRUCTURE
     1 ACP         1 GROUP 0 A     ****
@<TRIPOS>MOLECULE
[[5-(6-aminopurin-9-yl)-3,4-dihydroxy-tetrahydrofuran-2-yl]methoxy-oxido-phosphoryl]oxy-(phosphonomethyl)phosphinate
   47    49     1     0     0
SMALL
USER_CHARGES

@<TRIPOS>ATOM
      1 PG         -0.1873   -2.7715   -3.2729 P.3       1 ACP         1.6478
      2 O1G         0.9797   -2.9727   -4.1921 O.2       1 ACP        -0.9103
      3 O2G        -0.1036   -1.4697   -2.3197 O.3       1 ACP        -0.7989
      4 O3G        -0.4722   -3.9804   -2.2399 O.3       1 ACP        -0.7989
      5 PB         -2.1090   -1.1997   -5.3142 P.3       1 ACP         1.4947
      6 O1B        -3.5305   -1.3675   -5.7984 O.co2     1 ACP        -0.8554
      7 O2B        -0.9351   -1.1348   -6.2636 O.co2     1 ACP        -0.8554
      8 C3B        -1.7731   -2.5672   -4.1150 C.3       1 ACP        -0.6550
      9 PA         -1.9759    1.6544   -4.5128 P.3       1 ACP         1.5921
     10 O1A        -3.2816    2.0899   -5.1421 O.co2     1 ACP        -0.8561
     11 O2A        -0.6544    1.9867   -5.1711 O.co2     1 ACP        -0.8561
     12 O3A        -2.0355    0.0420   -4.2597 O.3       1 ACP        -0.8166
     13 O5'        -1.9208    2.1717   -2.9622 O.3       1 ACP        -0.5737
     14 C5'        -0.7794    1.8744   -2.1748 C.3       1 ACP         0.2197
     15 C4'        -0.9699    2.4597   -0.7819 C.3       1 ACP         0.0944
     16 O4'        -2.1475    1.8640   -0.2014 O.3       1 ACP        -0.4017
     17 C3'         0.1697    2.1347    0.1695 C.3       1 ACP         0.0859
     18 O3'         0.1809    3.0982    1.2223 O.3       1 ACP        -0.5941
     19 C2'        -0.2543    0.7880    0.7187 C.3       1 ACP         0.0924
     20 O2'         0.3606    0.4944    1.9582 O.3       1 ACP        -0.5928
     21 C1'        -1.7682    0.9516    0.8548 C.3       1 ACP         0.3967
     22 N9         -2.5926   -0.2553    0.7436 N.pl3     1 ACP        -0.6763
     23 C8         -2.2879   -1.3752    0.0161 C.ar      1 ACP         0.5586
     24 N7         -3.2214   -2.2987    0.1123 N.2       1 ACP        -0.5795
     25 C5         -4.1723   -1.7531    0.9377 C.ar      1 ACP        -0.2116
     26 C6         -5.3870   -2.2342    1.4159 C.ar      1 ACP         0.7185
     27 N6         -5.8433   -3.5142    1.0574 N.pl3     1 ACP        -0.9442
     28 N1         -6.1289   -1.4512    2.2356 N.ar      1 ACP        -0.8040
     29 C2         -5.6370   -0.2275    2.5461 C.ar      1 ACP         0.6560
     30 N3         -4.4810    0.3469    2.1476 N.ar      1 ACP        -0.7058
     31 C4         -3.7996   -0.4810    1.3417 C.ar      1 ACP         0.5729
     32 HOG2        0.6428   -1.3904   -1.6884 H         1 ACP         0.4440
     33 HOG3        0.2258   -4.2317   -1.5984 H         1 ACP         0.4440
     34 H3B1       -1.9799   -3.4946   -4.6609 H         1 ACP         0.1084
     35 H3B2       -2.5393   -2.4772   -3.3365 H         1 ACP         0.1084
     36 H5'1       -0.6602    0.7877   -2.1203 H         1 ACP         0.0281
     37 H5'2        0.1041    2.3072   -2.6545 H         1 ACP         0.0281
     38 H4'        -1.1469    3.5409   -0.8522 H         1 ACP         0.1082
     39 H3'         1.1601    2.1310   -0.2934 H         1 ACP         0.0650
     40 HO3'        0.9173    2.8584    1.8048 H         1 ACP         0.4300
     41 H2'        -0.0024   -0.0091    0.0062 H         1 ACP         0.0785
     42 HO2'        0.0384   -0.3797    2.2403 H         1 ACP         0.4275
     43 H1'        -2.0584    1.4255    1.8301 H         1 ACP         0.1009
     44 H8         -1.3765   -1.4593   -0.5599 H         1 ACP         0.1067
     45 HN61       -5.3086   -4.0656    0.4134 H         1 ACP         0.4213
     46 HN62       -6.7426   -3.8233    1.3745 H         1 ACP         0.4213
     47 H2         -6.2570    0.3723    3.2040 H         1 ACP         0.0365
@<TRIPOS>BOND
     1    1    2 2
     2    1    3 1
     3    1    4 1
     4    1    8 1
     5    3   32 1
     6    4   33 1
     7    5    6 2
     8    5    7 1
     9    5    8 1
    10    5   12 1
    11    8   34 1
    12    8   35 1
    13    9   10 2
    14    9   11 1
    15    9   12 1
    16    9   13 1
    17   13   14 1
    18   14   15 1
    19   14   36 1
    20   14   37 1
    21   15   16 1
    22   15   17 1
    23   15   38 1
    24   16   21 1
    25   17   18 1
    26   17   19 1
    27   17   39 1
    28   18   40 1
    29   19   20 1
    30   19   21 1
    31   19   41 1
    32   20   42 1
    33   21   22 1
    34   21   43 1
    35   22   23 ar
    36   22   31 ar
    37   23   24 ar
    38   23   44 1
    39   24   25 ar
    40   25   26 ar
    41   25   31 ar
    42   26   27 1
    43   26   28 ar
    44   27   45 1
    45   27   46 1
    46   28   29 ar
    47   29   30 ar
    48   29   47 1
    49   30   31 ar
@<TRIPOS>SUBSTRUCTURE
     1 ACP         1 GROUP 0 A     ****
@<TRIPOS>MOLECULE
[[5-(6-aminopurin-9-yl)-3,4-dihydroxy-tetrahydrofuran-2-yl]methoxy-oxido-phosphoryl]oxy-(phosphonomethyl)phosphinate
   47    49     1     0     0
SMALL
USER_CHARGES

@<TRIPOS>ATOM
      1 PG          3.5105    4.1946    0.0125 P.3       1 ACP         1.6478
      2 O1G         3.5576    5.6626    0.3125 O.2       1 ACP        -0.9103
      3 O2G         2.6255    3.3061    1.0311 O.3       1 ACP        -0.7989
      4 O3G         4.9409    3.4440   -0.0014 O.3       1 ACP        -0.7989
      5 PB          1.0941    4.2402   -2.1063 P.3       1 ACP         1.4947
      6 O1B         0.8884    3.7307   -3.5140 O.co2     1 ACP        -0.8554
      7 O2B         0.8840    5.6896   -1.7337 O.co2     1 ACP        -0.8554
      8 C3B         2.8155    3.7861   -1.6048 C.3       1 ACP        -0.6550
      9 PA         -1.2906    2.9169   -0.9367 P.3       1 ACP         1.5921
     10 O1A        -1.6998    2.1387   -2.1686 O.co2     1 ACP        -0.8561
     11 O2A        -2.0377    4.1694   -0.5329 O.co2     1 ACP        -0.8561
     12 O3A         0.2974    3.2793   -1.0570 O.3       1 ACP        -0.8166
     13 O5'        -1.2434    1.9101    0.3513 O.3       1 ACP        -0.5737
     14 C5'        -0.8811    2.4285    1.6206 C.3       1 ACP         0.2197
     15 C4'        -0.1994    1.3333    2.4288 C.3       1 ACP         0.0944
     16 O4'        -1.1285    0.2356    2.5840 O.3       1 ACP        -0.4017
     17 C3'         1.0324    0.7610    1.7344 C.3       1 ACP         0.0859
     18 O3'         1.9175    0.2377    2.7247 O.3       1 ACP        -0.5941
     19 C2'         0.4468   -0.3802    0.9263 C.3       1 ACP         0.0924
     20 O2'         1.3993   -1.3703    0.5961 O.3       1 ACP        -0.5928
     21 C1'        -0.6159   -0.9100    1.8769 C.3       1 ACP         0.3967
     22 N9         -1.7127   -1.6108    1.2130 N.pl3     1 ACP        -0.6763
     23 C8         -2.8641   -1.0399    0.7392 C.ar      1 ACP         0.5586
     24 N7         -3.6659   -1.9257    0.1858 N.2       1 ACP        -0.5795
     25 C5         -3.0053   -3.1223    0.3069 C.ar      1 ACP        -0.2116
     26 C6         -3.3321   -4.4178   -0.0813 C.ar      1 ACP         0.7185
     27 N6         -4.5476   -4.6866   -0.7335 N.pl3     1 ACP        -0.9442
     28 N1         -2.4608   -5.4225    0.1773 N.ar      1 ACP        -0.8040
     29 C2         -1.3053   -5.1020    0.8081 C.ar      1 ACP         0.6560
     30 N3         -0.8788   -3.8921    1.2315 N.ar      1 ACP        -0.7058
     31 C4         -1.7870   -2.9477    0.9438 C.ar      1 ACP         0.5729
     32 HOG2        2.8671    3.2914    1.9816 H         1 ACP         0.4440
     33 HOG3        5.4873    3.4476    0.8132 H         1 ACP         0.4440
     34 H3B1        3.4694    4.2253   -2.3666 H         1 ACP         0.1084
     35 H3B2        2.8820    2.6977   -1.7158 H         1 ACP         0.1084
     36 H5'1       -0.2035    3.2759    1.4765 H         1 ACP         0.0281
     37 H5'2       -1.7842    2.7761    2.1320 H         1 ACP         0.0281
     38 H4'         0.0403    1.7078    3.4343 H         1 ACP         0.1082
     39 H3'         1.5906    1.4859    1.1353 H         1 ACP         0.0650
     40 HO3'        2.6839   -0.1150    2.2479 H         1 ACP         0.4300
     41 H2'        -0.0017    0.0018    0.0005 H         1 ACP         0.0785
     42 HO2'        0.9369   -2.0558    0.0825 H         1 ACP         0.4275
     43 H1'        -0.1998   -1.6319    2.6178 H         1 ACP         0.1009
     44 H8         -3.0609    0.0200    0.8250 H         1 ACP         0.1067
     45 HN61       -5.2046   -3.9433   -0.8775 H         1 ACP         0.4213
     46 HN62       -4.7849   -5.6332   -0.9625 H         1 ACP         0.4213
     47 H2         -0.6318   -5.9307    0.9993 H         1 ACP         0.0365
@<TRIPOS>BOND
     1    1    2 2
     2    1    3 1
     3    1    4 1
     4    1    8 1
     5    3   32 1
     6    4   33 1
     7    5    6 2
     8    5    7 1
     9    5    8 1
    10    5   12 1
    11    8   34 1
    12    8   35 1
    13    9   10 2
    14    9   11 1
    15    9   12 1
    16    9   13 1
    17   13   14 1
    18   14   15 1
    19   14   36 1
    20   14   37 1
    21   15   16 1
    22   15   17 1
    23   15   38 1
    24   16   21 1
    25   17   18 1
    26   17   19 1
    27   17   39 1
    28   18   40 1
    29   19   20 1
    30   19   21 1
    31   19   41 1
    32   20   42 1
    33   21   22 1
    34   21   43 1
    35   22   23 ar
    36   22   31 ar
    37   23   24 ar
    38   23   44 1
    39   24   25 ar
    40   25   26 ar
    41   25   31 ar
    42   26   27 1
    43   26   28 ar
    44   27   45 1
    45   27   46 1
    46   28   29 ar
    47   29   30 ar
    48   29   47 1
    49   30   31 ar
@<TRIPOS>SUBSTRUCTURE
     1 ACP         1 GROUP 0 A     ****
@<TRIPOS>MOLECULE
[[5-(6-aminopurin-9-yl)-3,4-dihydroxy-tetrahydrofuran-2-yl]methoxy-oxido-phosphoryl]oxy-(phosphonomethyl)phosphinate
   47    49     1     0     0
SMALL
USER_CHARGES

@<TRIPOS>ATOM
      1 PG          8.1458    4.8489   -3.6030 P.3       1 ACP         1.6478
      2 O1G         8.8671    3.9684   -4.5786 O.2       1 ACP        -0.9103
      3 O2G         8.3183    6.4373   -3.8426 O.3       1 ACP        -0.7989
      4 O3G         8.5599    4.6516   -2.0540 O.3       1 ACP        -0.7989
      5 PB          5.5423    3.0141   -3.1723 P.3       1 ACP         1.4947
      6 O1B         6.0198    2.0019   -4.1877 O.co2     1 ACP        -0.8554
      7 O2B         4.0756    3.2937   -2.9395 O.co2     1 ACP        -0.8554
      8 C3B         6.3527    4.6255   -3.5814 C.3       1 ACP        -0.6550
      9 PA          6.1592    3.5244   -0.3148 P.3       1 ACP         1.5921
     10 O1A         6.4205    4.9975   -0.5432 O.co2     1 ACP        -0.8561
     11 O2A         6.9491    2.7529    0.7199 O.co2     1 ACP        -0.8561
     12 O3A         6.2869    2.7480   -1.7461 O.3       1 ACP        -0.8166
     13 O5'         4.5669    3.2941   -0.0211 O.3       1 ACP        -0.5737
     14 C5'         4.0922    1.9801    0.2227 C.3       1 ACP         0.2197
     15 C4'         2.5944    2.0310    0.4653 C.3       1 ACP         0.0944
     16 O4'         1.9327    2.5740   -0.6889 O.3       1 ACP        -0.4017
     17 C3'         1.9685    0.6634    0.6767 C.3       1 ACP         0.0859
     18 O3'         2.1425    0.1975    1.9977 O.3       1 ACP        -0.5941
     19 C2'         0.5176    0.9128    0.3099 C.3       1 ACP         0.0924
     20 O2'        -0.2103    1.4454    1.4152 O.3       1 ACP        -0.5928
     21 C1'         0.6219    1.9765   -0.7844 C.3       1 ACP         0.3967
     22 N9          0.4237    1.4496   -2.1357 N.pl3     1 ACP        -0.6763
     23 C8          1.4026    0.9717   -2.9660 C.ar      1 ACP         0.5586
     24 N7          0.9183    0.5619   -4.1197 N.2       1 ACP        -0.5795
     25 C5         -0.4330    0.7845   -4.0331 C.ar      1 ACP        -0.2116
     26 C6         -1.4794    0.5615   -4.9225 C.ar      1 ACP         0.7185
     27 N6         -1.2378    0.0044   -6.1899 N.pl3     1 ACP        -0.9442
     28 N1         -2.7406    0.8885   -4.5512 N.ar      1 ACP        -0.8040
     29 C2         -2.9113    1.4216   -3.3172 C.ar      1 ACP         0.6560
     30 N3         -1.9824    1.6843   -2.3721 N.ar      1 ACP        -0.7058
     31 C4         -0.7613    1.3370   -2.8054 C.ar      1 ACP         0.5729
     32 HOG2        9.2177    6.8274   -3.8115 H         1 ACP         0.4440
     33 HOG3        9.4910    4.8064   -1.7877 H         1 ACP         0.4440
     34 H3B1        5.9371    5.3518   -2.8738 H         1 ACP         0.1084
     35 H3B2        5.9841    4.9016   -4.5759 H         1 ACP         0.1084
     36 H5'1        4.3181    1.3551   -0.6470 H         1 ACP         0.0281
     37 H5'2        4.6085    1.5740    1.0982 H         1 ACP         0.0281
     38 H4'         2.3751    2.7029    1.3156 H         1 ACP         0.1082
     39 H3'         2.4336   -0.1217   -0.0015 H         1 ACP         0.0650
     40 HO3'        3.0987    0.1465    2.1461 H         1 ACP         0.4300
     41 H2'         0.0316    0.0155   -0.0339 H         1 ACP         0.0785
     42 HO2'       -1.1270    1.5823    1.1180 H         1 ACP         0.4275
     43 H1'        -0.1474    2.7798   -0.6651 H         1 ACP         0.1009
     44 H8          2.4442    0.9470   -2.6763 H         1 ACP         0.1067
     45 HN61       -0.2955   -0.1901   -6.4713 H         1 ACP         0.4213
     46 HN62       -1.9987   -0.1045   -6.8334 H         1 ACP         0.4213
     47 H2         -3.9335    1.6716   -3.0534 H         1 ACP         0.0365
@<TRIPOS>BOND
     1    1    2 2
     2    1    3 1
     3    1    4 1
     4    1    8 1
     5    3   32 1
     6    4   33 1
     7    5    6 2
     8    5    7 1
     9    5    8 1
    10    5   12 1
    11    8   34 1
    12    8   35 1
    13    9   10 2
    14    9   11 1
    15    9   12 1
    16    9   13 1
    17   13   14 1
    18   14   15 1
    19   14   36 1
    20   14   37 1
    21   15   16 1
    22   15   17 1
    23   15   38 1
    24   16   21 1
    25   17   18 1
    26   17   19 1
    27   17   39 1
    28   18   40 1
    29   19   20 1
    30   19   21 1
    31   19   41 1
    32   20   42 1
    33   21   22 1
    34   21   43 1
    35   22   23 ar
    36   22   31 ar
    37   23   24 ar
    38   23   44 1
    39   24   25 ar
    40   25   26 ar
    41   25   31 ar
    42   26   27 1
    43   26   28 ar
    44   27   45 1
    45   27   46 1
    46   28   29 ar
    47   29   30 ar
    48   29   47 1
    49   30   31 ar
@<TRIPOS>SUBSTRUCTURE
     1 ACP         1 GROUP 0 A     ****
@<TRIPOS>MOLECULE
[[5-(6-aminopurin-9-yl)-3,4-dihydroxy-tetrahydrofuran-2-yl]methoxy-oxido-phosphoryl]oxy-(phosphonomethyl)phosphinate
   47    49     1     0     0
SMALL
USER_CHARGES

@<TRIPOS>ATOM
      1 PG         -3.4807    5.8929   -5.5750 P.3       1 ACP         1.6478
      2 O1G        -4.7444    6.1612   -6.3356 O.2       1 ACP        -0.9103
      3 O2G        -3.6247    4.8785   -4.3258 O.3       1 ACP        -0.7989
      4 O3G        -2.7719    7.1926   -4.9286 O.3       1 ACP        -0.7989
      5 PB         -0.5019    4.7212   -5.8639 P.3       1 ACP         1.4947
      6 O1B         0.1112    6.0007   -5.3440 O.co2     1 ACP        -0.8554
      7 O2B         0.1981    3.8437   -6.8757 O.co2     1 ACP        -0.8554
      8 C3B        -2.1602    5.1513   -6.5608 C.3       1 ACP        -0.6550
      9 PA         -1.7483    2.3548   -4.5782 P.3       1 ACP         1.5921
     10 O1A        -0.7754    1.3199   -5.1006 O.co2     1 ACP        -0.8561
     11 O2A        -3.1254    2.4959   -5.1896 O.co2     1 ACP        -0.8561
     12 O3A        -1.0174    3.8151   -4.6099 O.3       1 ACP        -0.8166
     13 O5'        -1.9208    2.1717   -2.9622 O.3       1 ACP        -0.5737
     14 C5'        -0.7794    1.8744   -2.1748 C.3       1 ACP         0.2197
     15 C4'        -0.9699    2.4597   -0.7819 C.3       1 ACP         0.0944
     16 O4'        -2.1475    1.8640   -0.2014 O.3       1 ACP        -0.4017
     17 C3'         0.1697    2.1347    0.1695 C.3       1 ACP         0.0859
     18 O3'         0.1809    3.0982    1.2223 O.3       1 ACP        -0.5941
     19 C2'        -0.2543    0.7880    0.7187 C.3       1 ACP         0.0924
     20 O2'         0.3606    0.4944    1.9582 O.3       1 ACP        -0.5928
     21 C1'        -1.7682    0.9516    0.8548 C.3       1 ACP         0.3967
     22 N9         -2.5926   -0.2553    0.7436 N.pl3     1 ACP        -0.6763
     23 C8         -2.9796   -1.0650    1.7783 C.ar      1 ACP         0.5586
     24 N7         -3.7205   -2.0736    1.3689 N.2       1 ACP        -0.5795
     25 C5         -3.8171   -1.9102    0.0098 C.ar      1 ACP        -0.2116
     26 C6         -4.4622   -2.6452   -0.9798 C.ar      1 ACP         0.7185
     27 N6         -5.1910   -3.8019   -0.6548 N.pl3     1 ACP        -0.9442
     28 N1         -4.3799   -2.2309   -2.2672 N.ar      1 ACP        -0.8040
     29 C2         -3.6636   -1.1087   -2.5188 C.ar      1 ACP         0.6560
     30 N3         -2.9978   -0.3162   -1.6507 N.ar      1 ACP        -0.7058
     31 C4         -3.1216   -0.7837   -0.3994 C.ar      1 ACP         0.5729
     32 HOG2       -4.2340    5.1107   -3.5931 H         1 ACP         0.4440
     33 HOG3       -3.2690    7.7295   -4.2754 H         1 ACP         0.4440
     34 H3B1       -2.5497    4.2209   -6.9893 H         1 ACP         0.1084
     35 H3B2       -1.9656    5.8315   -7.3979 H         1 ACP         0.1084
     36 H5'1       -0.6602    0.7877   -2.1203 H         1 ACP         0.0281
     37 H5'2        0.1041    2.3072   -2.6545 H         1 ACP         0.0281
     38 H4'        -1.1469    3.5409   -0.8522 H         1 ACP         0.1082
     39 H3'         1.1601    2.1310   -0.2934 H         1 ACP         0.0650
     40 HO3'        0.9173    2.8584    1.8048 H         1 ACP         0.4300
     41 H2'        -0.0024   -0.0091    0.0062 H         1 ACP         0.0785
     42 HO2'        0.0384   -0.3797    2.2403 H         1 ACP         0.4275
     43 H1'        -2.0584    1.4255    1.8301 H         1 ACP         0.1009
     44 H8         -2.6931   -0.8698    2.8026 H         1 ACP         0.1067
     45 HN61       -5.2060   -4.1247    0.2941 H         1 ACP         0.4213
     46 HN62       -5.6089   -4.3432   -1.3878 H         1 ACP         0.4213
     47 H2         -3.6188   -0.8065   -3.5598 H         1 ACP         0.0365
@<TRIPOS>BOND
     1    1    2 2
     2    1    3 1
     3    1    4 1
     4    1    8 1
     5    3   32 1
     6    4   33 1
     7    5    6 2
     8    5    7 1
     9    5    8 1
    10    5   12 1
    11    8   34 1
    12    8   35 1
    13    9   10 2
    14    9   11 1
    15    9   12 1
    16    9   13 1
    17   13   14 1
    18   14   15 1
    19   14   36 1
    20   14   37 1
    21   15   16 1
    22   15   17 1
    23   15   38 1
    24   16   21 1
    25   17   18 1
    26   17   19 1
    27   17   39 1
    28   18   40 1
    29   19   20 1
    30   19   21 1
    31   19   41 1
    32   20   42 1
    33   21   22 1
    34   21   43 1
    35   22   23 ar
    36   22   31 ar
    37   23   24 ar
    38   23   44 1
    39   24   25 ar
    40   25   26 ar
    41   25   31 ar
    42   26   27 1
    43   26   28 ar
    44   27   45 1
    45   27   46 1
    46   28   29 ar
    47   29   30 ar
    48   29   47 1
    49   30   31 ar
@<TRIPOS>SUBSTRUCTURE
     1 ACP         1 GROUP 0 A     ****
@<TRIPOS>MOLECULE
[[5-(6-aminopurin-9-yl)-3,4-dihydroxy-tetrahydrofuran-2-yl]methoxy-oxido-phosphoryl]oxy-(phosphonomethyl)phosphinate
   47    49     1     0     0
SMALL
USER_CHARGES

@<TRIPOS>ATOM
      1 PG          4.7766    3.4750   -3.4298 P.3       1 ACP         1.6478
      2 O1G         5.5894    4.4643   -4.2094 O.2       1 ACP        -0.9103
      3 O2G         3.3019    3.9746   -2.9987 O.3       1 ACP        -0.7989
      4 O3G         5.4326    2.9831   -2.0378 O.3       1 ACP        -0.7989
      5 PB          3.4729    0.5403   -3.5636 P.3       1 ACP         1.4947
      6 O1B         4.1915    0.1036   -2.3081 O.co2     1 ACP        -0.8554
      7 O2B         3.1421   -0.4222   -4.6806 O.co2     1 ACP        -0.8554
      8 C3B         4.4509    1.9259   -4.3015 C.3       1 ACP        -0.6550
      9 PA          1.0091    2.1062   -4.0966 P.3       1 ACP         1.5921
     10 O1A         0.2520    1.0240   -4.8357 O.co2     1 ACP        -0.8561
     11 O2A         1.6556    3.2473   -4.8515 O.co2     1 ACP        -0.8561
     12 O3A         2.1448    1.3969   -3.1614 O.3       1 ACP        -0.8166
     13 O5'         0.0526    2.7390   -2.9307 O.3       1 ACP        -0.5737
     14 C5'        -0.7794    1.8744   -2.1748 C.3       1 ACP         0.2197
     15 C4'        -0.9699    2.4597   -0.7819 C.3       1 ACP         0.0944
     16 O4'        -2.1475    1.8640   -0.2014 O.3       1 ACP        -0.4017
     17 C3'         0.1697    2.1347    0.1695 C.3       1 ACP         0.0859
     18 O3'         0.1809    3.0982    1.2223 O.3       1 ACP        -0.5941
     19 C2'        -0.2543    0.7880    0.7187 C.3       1 ACP         0.0924
     20 O2'         0.3606    0.4944    1.9582 O.3       1 ACP        -0.5928
     21 C1'        -1.7682    0.9516    0.8548 C.3       1 ACP         0.3967
     22 N9         -2.5926   -0.2553    0.7436 N.pl3     1 ACP        -0.6763
     23 C8         -3.1120   -0.7726   -0.4135 C.ar      1 ACP         0.5586
     24 N7         -3.8089   -1.8688   -0.1980 N.2       1 ACP        -0.5795
     25 C5         -3.7380   -2.0700    1.1576 C.ar      1 ACP        -0.2116
     26 C6         -4.2662   -3.0526    1.9890 C.ar      1 ACP         0.7185
     27 N6         -5.0420   -4.0987    1.4609 N.pl3     1 ACP        -0.9442
     28 N1         -4.0226   -2.9899    3.3202 N.ar      1 ACP        -0.8040
     29 C2         -3.2679   -1.9585    3.7704 C.ar      1 ACP         0.6560
     30 N3         -2.7045   -0.9514    3.0680 N.ar      1 ACP        -0.7058
     31 C4         -2.9852   -1.0761    1.7622 C.ar      1 ACP         0.5729
     32 HOG2        3.2169    4.7698   -2.4309 H         1 ACP         0.4440
     33 HOG3        5.6282    3.6478   -1.3437 H         1 ACP         0.4440
     34 H3B1        3.9455    2.1749   -5.2413 H         1 ACP         0.1084
     35 H3B2        5.4242    1.4971   -4.5661 H         1 ACP         0.1084
     36 H5'1       -1.7434    1.7764   -2.6839 H         1 ACP         0.0281
     37 H5'2       -0.3052    0.8897   -2.1149 H         1 ACP         0.0281
     38 H4'        -1.1469    3.5409   -0.8522 H         1 ACP         0.1082
     39 H3'         1.1601    2.1310   -0.2934 H         1 ACP         0.0650
     40 HO3'        0.9173    2.8584    1.8048 H         1 ACP         0.4300
     41 H2'        -0.0024   -0.0091    0.0062 H         1 ACP         0.0785
     42 HO2'        0.0384   -0.3797    2.2403 H         1 ACP         0.4275
     43 H1'        -2.0584    1.4255    1.8301 H         1 ACP         0.1009
     44 H8         -2.9491   -0.3098   -1.3772 H         1 ACP         0.1067
     45 HN61       -5.2544   -4.1089    0.4813 H         1 ACP         0.4213
     46 HN62       -5.4523   -4.7699    2.0823 H         1 ACP         0.4213
     47 H2         -3.0933   -1.9395    4.8410 H         1 ACP         0.0365
@<TRIPOS>BOND
     1    1    2 2
     2    1    3 1
     3    1    4 1
     4    1    8 1
     5    3   32 1
     6    4   33 1
     7    5    6 2
     8    5    7 1
     9    5    8 1
    10    5   12 1
    11    8   34 1
    12    8   35 1
    13    9   10 2
    14    9   11 1
    15    9   12 1
    16    9   13 1
    17   13   14 1
    18   14   15 1
    19   14   36 1
    20   14   37 1
    21   15   16 1
    22   15   17 1
    23   15   38 1
    24   16   21 1
    25   17   18 1
    26   17   19 1
    27   17   39 1
    28   18   40 1
    29   19   20 1
    30   19   21 1
    31   19   41 1
    32   20   42 1
    33   21   22 1
    34   21   43 1
    35   22   23 ar
    36   22   31 ar
    37   23   24 ar
    38   23   44 1
    39   24   25 ar
    40   25   26 ar
    41   25   31 ar
    42   26   27 1
    43   26   28 ar
    44   27   45 1
    45   27   46 1
    46   28   29 ar
    47   29   30 ar
    48   29   47 1
    49   30   31 ar
@<TRIPOS>SUBSTRUCTURE
     1 ACP         1 GROUP 0 A     ****
@<TRIPOS>MOLECULE
[[5-(6-aminopurin-9-yl)-3,4-dihydroxy-tetrahydrofuran-2-yl]methoxy-oxido-phosphoryl]oxy-(phosphonomethyl)phosphinate
   47    49     1     0     0
SMALL
USER_CHARGES

@<TRIPOS>ATOM
      1 PG          4.7766    3.4750   -3.4298 P.3       1 ACP         1.6478
      2 O1G         5.5894    4.4643   -4.2094 O.2       1 ACP        -0.9103
      3 O2G         3.3019    3.9746   -2.9987 O.3       1 ACP        -0.7989
      4 O3G         5.4326    2.9831   -2.0378 O.3       1 ACP        -0.7989
      5 PB          3.4729    0.5403   -3.5636 P.3       1 ACP         1.4947
      6 O1B         4.1915    0.1036   -2.3081 O.co2     1 ACP        -0.8554
      7 O2B         3.1421   -0.4222   -4.6806 O.co2     1 ACP        -0.8554
      8 C3B         4.4509    1.9259   -4.3015 C.3       1 ACP        -0.6550
      9 PA          1.0091    2.1062   -4.0966 P.3       1 ACP         1.5921
     10 O1A         0.2520    1.0240   -4.8357 O.co2     1 ACP        -0.8561
     11 O2A         1.6556    3.2473   -4.8515 O.co2     1 ACP        -0.8561
     12 O3A         2.1448    1.3969   -3.1614 O.3       1 ACP        -0.8166
     13 O5'         0.0526    2.7390   -2.9307 O.3       1 ACP        -0.5737
     14 C5'        -0.7794    1.8744   -2.1748 C.3       1 ACP         0.2197
     15 C4'        -0.9699    2.4597   -0.7819 C.3       1 ACP         0.0944
     16 O4'        -2.1475    1.8640   -0.2014 O.3       1 ACP        -0.4017
     17 C3'         0.1697    2.1347    0.1695 C.3       1 ACP         0.0859
     18 O3'         0.1809    3.0982    1.2223 O.3       1 ACP        -0.5941
     19 C2'        -0.2543    0.7880    0.7187 C.3       1 ACP         0.0924
     20 O2'         0.3606    0.4944    1.9582 O.3       1 ACP        -0.5928
     21 C1'        -1.7682    0.9516    0.8548 C.3       1 ACP         0.3967
     22 N9         -2.5926   -0.2553    0.7436 N.pl3     1 ACP        -0.6763
     23 C8         -3.4452   -0.7398    1.6998 C.ar      1 ACP         0.5586
     24 N7         -4.0528   -1.8413    1.3109 N.2       1 ACP        -0.5795
     25 C5         -3.5725   -2.0808    0.0480 C.ar      1 ACP        -0.2116
     26 C6         -3.8302   -3.0862   -0.8786 C.ar      1 ACP         0.7185
     27 N6         -4.7399   -4.1165   -0.5855 N.pl3     1 ACP        -0.9442
     28 N1         -3.1915   -3.0606   -2.0731 N.ar      1 ACP        -0.8040
     29 C2         -2.3264   -2.0424   -2.2985 C.ar      1 ACP         0.6560
     30 N3         -1.9948   -1.0167   -1.4843 N.ar      1 ACP        -0.7058
     31 C4         -2.6619   -1.1046   -0.3238 C.ar      1 ACP         0.5729
     32 HOG2        3.2169    4.7698   -2.4309 H         1 ACP         0.4440
     33 HOG3        5.6282    3.6478   -1.3437 H         1 ACP         0.4440
     34 H3B1        3.9455    2.1749   -5.2413 H         1 ACP         0.1084
     35 H3B2        5.4242    1.4971   -4.5661 H         1 ACP         0.1084
     36 H5'1       -1.7434    1.7764   -2.6839 H         1 ACP         0.0281
     37 H5'2       -0.3052    0.8897   -2.1149 H         1 ACP         0.0281
     38 H4'        -1.1469    3.5409   -0.8522 H         1 ACP         0.1082
     39 H3'         1.1601    2.1310   -0.2934 H         1 ACP         0.0650
     40 HO3'        0.9173    2.8584    1.8048 H         1 ACP         0.4300
     41 H2'        -0.0024   -0.0091    0.0062 H         1 ACP         0.0785
     42 HO2'        0.0384   -0.3797    2.2403 H         1 ACP         0.4275
     43 H1'        -2.0584    1.4255    1.8301 H         1 ACP         0.1009
     44 H8         -3.5812   -0.2495    2.6541 H         1 ACP         0.1067
     45 HN61       -5.1710   -4.1509    0.3189 H         1 ACP         0.4213
     46 HN62       -4.8760   -4.8567   -1.2476 H         1 ACP         0.4213
     47 H2         -1.8329   -2.0536   -3.2645 H         1 ACP         0.0365
@<TRIPOS>BOND
     1    1    2 2
     2    1    3 1
     3    1    4 1
     4    1    8 1
     5    3   32 1
     6    4   33 1
     7    5    6 2
     8    5    7 1
     9    5    8 1
    10    5   12 1
    11    8   34 1
    12    8   35 1
    13    9   10 2
    14    9   11 1
    15    9   12 1
    16    9   13 1
    17   13   14 1
    18   14   15 1
    19   14   36 1
    20   14   37 1
    21   15   16 1
    22   15   17 1
    23   15   38 1
    24   16   21 1
    25   17   18 1
    26   17   19 1
    27   17   39 1
    28   18   40 1
    29   19   20 1
    30   19   21 1
    31   19   41 1
    32   20   42 1
    33   21   22 1
    34   21   43 1
    35   22   23 ar
    36   22   31 ar
    37   23   24 ar
    38   23   44 1
    39   24   25 ar
    40   25   26 ar
    41   25   31 ar
    42   26   27 1
    43   26   28 ar
    44   27   45 1
    45   27   46 1
    46   28   29 ar
    47   29   30 ar
    48   29   47 1
    49   30   31 ar
@<TRIPOS>SUBSTRUCTURE
     1 ACP         1 GROUP 0 A     ****
@<TRIPOS>MOLECULE
[[5-(6-aminopurin-9-yl)-3,4-dihydroxy-tetrahydrofuran-2-yl]methoxy-oxido-phosphoryl]oxy-(phosphonomethyl)phosphinate
   47    49     1     0     0
SMALL
USER_CHARGES

@<TRIPOS>ATOM
      1 PG         -3.5049    7.8314    3.4152 P.3       1 ACP         1.6478
      2 O1G        -2.7613    9.0796    3.0459 O.2       1 ACP        -0.9103
      3 O2G        -4.9965    8.0575    3.9933 O.3       1 ACP        -0.7989
      4 O3G        -2.7980    6.9106    4.5387 O.3       1 ACP        -0.7989
      5 PB         -2.3703    5.9214    1.0926 P.3       1 ACP         1.4947
      6 O1B        -1.5793    7.0508    0.4742 O.co2     1 ACP        -0.8554
      7 O2B        -2.9514    4.7966    0.2675 O.co2     1 ACP        -0.8554
      8 C3B        -3.7617    6.6831    2.0437 C.3       1 ACP        -0.6550
      9 PA         -1.9154    4.0917    3.3841 P.3       1 ACP         1.5921
     10 O1A        -3.2739    4.3706    3.9902 O.co2     1 ACP        -0.8561
     11 O2A        -0.7157    3.8308    4.2687 O.co2     1 ACP        -0.8561
     12 O3A        -1.5461    5.3085    2.3591 O.3       1 ACP        -0.8166
     13 O5'        -2.0402    2.8619    2.3132 O.3       1 ACP        -0.5737
     14 C5'        -0.8811    2.4285    1.6206 C.3       1 ACP         0.2197
     15 C4'        -0.1994    1.3333    2.4288 C.3       1 ACP         0.0944
     16 O4'        -1.1285    0.2356    2.5840 O.3       1 ACP        -0.4017
     17 C3'         1.0324    0.7610    1.7344 C.3       1 ACP         0.0859
     18 O3'         1.9175    0.2377    2.7247 O.3       1 ACP        -0.5941
     19 C2'         0.4468   -0.3802    0.9263 C.3       1 ACP         0.0924
     20 O2'         1.3993   -1.3703    0.5961 O.3       1 ACP        -0.5928
     21 C1'        -0.6159   -0.9100    1.8769 C.3       1 ACP         0.3967
     22 N9         -1.7127   -1.6108    1.2130 N.pl3     1 ACP        -0.6763
     23 C8         -2.8641   -1.0399    0.7392 C.ar      1 ACP         0.5586
     24 N7         -3.6659   -1.9257    0.1858 N.2       1 ACP        -0.5795
     25 C5         -3.0053   -3.1223    0.3069 C.ar      1 ACP        -0.2116
     26 C6         -3.3321   -4.4178   -0.0813 C.ar      1 ACP         0.7185
     27 N6         -4.5476   -4.6866   -0.7335 N.pl3     1 ACP        -0.9442
     28 N1         -2.4608   -5.4225    0.1773 N.ar      1 ACP        -0.8040
     29 C2         -1.3053   -5.1020    0.8081 C.ar      1 ACP         0.6560
     30 N3         -0.8788   -3.8921    1.2315 N.ar      1 ACP        -0.7058
     31 C4         -1.7870   -2.9477    0.9438 C.ar      1 ACP         0.5729
     32 HOG2       -5.1143    8.5893    4.8090 H         1 ACP         0.4440
     33 HOG3       -2.6262    7.2915    5.4261 H         1 ACP         0.4440
     34 H3B1       -4.3541    5.8425    2.4224 H         1 ACP         0.1084
     35 H3B2       -4.3810    7.2025    1.3035 H         1 ACP         0.1084
     36 H5'1       -1.1771    2.0504    0.6370 H         1 ACP         0.0281
     37 H5'2       -0.2083    3.2816    1.4878 H         1 ACP         0.0281
     38 H4'         0.0403    1.7078    3.4343 H         1 ACP         0.1082
     39 H3'         1.5906    1.4859    1.1353 H         1 ACP         0.0650
     40 HO3'        2.6839   -0.1150    2.2479 H         1 ACP         0.4300
     41 H2'        -0.0017    0.0018    0.0005 H         1 ACP         0.0785
     42 HO2'        2.0953   -0.9375    0.0709 H         1 ACP         0.4275
     43 H1'        -0.1998   -1.6319    2.6178 H         1 ACP         0.1009
     44 H8         -3.0609    0.0200    0.8250 H         1 ACP         0.1067
     45 HN61       -5.2046   -3.9433   -0.8775 H         1 ACP         0.4213
     46 HN62       -4.7849   -5.6332   -0.9625 H         1 ACP         0.4213
     47 H2         -0.6318   -5.9307    0.9993 H         1 ACP         0.0365
@<TRIPOS>BOND
     1    1    2 2
     2    1    3 1
     3    1    4 1
     4    1    8 1
     5    3   32 1
     6    4   33 1
     7    5    6 2
     8    5    7 1
     9    5    8 1
    10    5   12 1
    11    8   34 1
    12    8   35 1
    13    9   10 2
    14    9   11 1
    15    9   12 1
    16    9   13 1
    17   13   14 1
    18   14   15 1
    19   14   36 1
    20   14   37 1
    21   15   16 1
    22   15   17 1
    23   15   38 1
    24   16   21 1
    25   17   18 1
    26   17   19 1
    27   17   39 1
    28   18   40 1
    29   19   20 1
    30   19   21 1
    31   19   41 1
    32   20   42 1
    33   21   22 1
    34   21   43 1
    35   22   23 ar
    36   22   31 ar
    37   23   24 ar
    38   23   44 1
    39   24   25 ar
    40   25   26 ar
    41   25   31 ar
    42   26   27 1
    43   26   28 ar
    44   27   45 1
    45   27   46 1
    46   28   29 ar
    47   29   30 ar
    48   29   47 1
    49   30   31 ar
@<TRIPOS>SUBSTRUCTURE
     1 ACP         1 GROUP 0 A     ****
@<TRIPOS>MOLECULE
[[5-(6-aminopurin-9-yl)-3,4-dihydroxy-tetrahydrofuran-2-yl]methoxy-oxido-phosphoryl]oxy-(phosphonomethyl)phosphinate
   47    49     1     0     0
SMALL
USER_CHARGES

@<TRIPOS>ATOM
      1 PG         -7.0297    3.2143    2.5551 P.3       1 ACP         1.6478
      2 O1G        -6.5219    4.3181    1.6769 O.2       1 ACP        -0.9103
      3 O2G        -7.9314    2.0971    1.8142 O.3       1 ACP        -0.7989
      4 O3G        -7.9515    3.6844    3.7956 O.3       1 ACP        -0.7989
      5 PB         -4.4579    1.2927    2.4042 P.3       1 ACP         1.4947
      6 O1B        -5.1910    0.2868    1.5472 O.co2     1 ACP        -0.8554
      7 O2B        -3.3799    0.8864    3.3821 O.co2     1 ACP        -0.8554
      8 C3B        -5.7336    2.2391    3.3516 C.3       1 ACP        -0.6550
      9 PA         -3.0799    3.8626    1.8539 P.3       1 ACP         1.5921
     10 O1A        -3.8211    4.5962    2.9506 O.co2     1 ACP        -0.8561
     11 O2A        -2.7011    4.5719    0.5719 O.co2     1 ACP        -0.8561
     12 O3A        -3.9227    2.5173    1.4698 O.3       1 ACP        -0.8166
     13 O5'        -1.7337    3.1724    2.4754 O.3       1 ACP        -0.5737
     14 C5'        -0.8811    2.4285    1.6206 C.3       1 ACP         0.2197
     15 C4'        -0.1994    1.3333    2.4288 C.3       1 ACP         0.0944
     16 O4'        -1.1285    0.2356    2.5840 O.3       1 ACP        -0.4017
     17 C3'         1.0324    0.7610    1.7344 C.3       1 ACP         0.0859
     18 O3'         1.9175    0.2377    2.7247 O.3       1 ACP        -0.5941
     19 C2'         0.4468   -0.3802    0.9263 C.3       1 ACP         0.0924
     20 O2'         1.3993   -1.3703    0.5961 O.3       1 ACP        -0.5928
     21 C1'        -0.6159   -0.9100    1.8769 C.3       1 ACP         0.3967
     22 N9         -1.7127   -1.6108    1.2130 N.pl3     1 ACP        -0.6763
     23 C8         -2.0877   -2.9101    1.4304 C.ar      1 ACP         0.5586
     24 N7         -3.1152   -3.2613    0.6857 N.2       1 ACP        -0.5795
     25 C5         -3.4186   -2.1409   -0.0462 C.ar      1 ACP        -0.2116
     26 C6         -4.3953   -1.8809   -1.0023 C.ar      1 ACP         0.7185
     27 N6         -5.3118   -2.8767   -1.3812 N.pl3     1 ACP        -0.9442
     28 N1         -4.4538   -0.6507   -1.5667 N.ar      1 ACP        -0.8040
     29 C2         -3.5442    0.2679   -1.1609 C.ar      1 ACP         0.6560
     30 N3         -2.5561    0.1361   -0.2491 N.ar      1 ACP        -0.7058
     31 C4         -2.5568   -1.1019    0.2674 C.ar      1 ACP         0.5729
     32 HOG2       -8.7608    2.3742    1.3698 H         1 ACP         0.4440
     33 HOG3       -8.7834    4.1706    3.6121 H         1 ACP         0.4440
     34 H3B1       -5.1722    2.9106    4.0111 H         1 ACP         0.1084
     35 H3B2       -6.2343    1.5057    3.9939 H         1 ACP         0.1084
     36 H5'1       -1.4802    1.9929    0.8148 H         1 ACP         0.0281
     37 H5'2       -0.1370    3.1043    1.1873 H         1 ACP         0.0281
     38 H4'         0.0403    1.7078    3.4343 H         1 ACP         0.1082
     39 H3'         1.5906    1.4859    1.1353 H         1 ACP         0.0650
     40 HO3'        2.6839   -0.1150    2.2479 H         1 ACP         0.4300
     41 H2'        -0.0017    0.0018    0.0005 H         1 ACP         0.0785
     42 HO2'        2.0953   -0.9375    0.0709 H         1 ACP         0.4275
     43 H1'        -0.1998   -1.6319    2.6178 H         1 ACP         0.1009
     44 H8         -1.5778   -3.5473    2.1399 H         1 ACP         0.1067
     45 HN61       -5.2294   -3.7965   -0.9914 H         1 ACP         0.4213
     46 HN62       -5.9774   -2.6837   -2.1055 H         1 ACP         0.4213
     47 H2         -3.6201    1.2414   -1.6336 H         1 ACP         0.0365
@<TRIPOS>BOND
     1    1    2 2
     2    1    3 1
     3    1    4 1
     4    1    8 1
     5    3   32 1
     6    4   33 1
     7    5    6 2
     8    5    7 1
     9    5    8 1
    10    5   12 1
    11    8   34 1
    12    8   35 1
    13    9   10 2
    14    9   11 1
    15    9   12 1
    16    9   13 1
    17   13   14 1
    18   14   15 1
    19   14   36 1
    20   14   37 1
    21   15   16 1
    22   15   17 1
    23   15   38 1
    24   16   21 1
    25   17   18 1
    26   17   19 1
    27   17   39 1
    28   18   40 1
    29   19   20 1
    30   19   21 1
    31   19   41 1
    32   20   42 1
    33   21   22 1
    34   21   43 1
    35   22   23 ar
    36   22   31 ar
    37   23   24 ar
    38   23   44 1
    39   24   25 ar
    40   25   26 ar
    41   25   31 ar
    42   26   27 1
    43   26   28 ar
    44   27   45 1
    45   27   46 1
    46   28   29 ar
    47   29   30 ar
    48   29   47 1
    49   30   31 ar
@<TRIPOS>SUBSTRUCTURE
     1 ACP         1 GROUP 0 A     ****
@<TRIPOS>MOLECULE
[[5-(6-aminopurin-9-yl)-3,4-dihydroxy-tetrahydrofuran-2-yl]methoxy-oxido-phosphoryl]oxy-(phosphonomethyl)phosphinate
   47    49     1     0     0
SMALL
USER_CHARGES

@<TRIPOS>ATOM
      1 PG         -0.2238    8.3023    3.7094 P.3       1 ACP         1.6478
      2 O1G        -1.2760    8.7844    4.6622 O.2       1 ACP        -0.9103
      3 O2G         1.0647    9.2644    3.5535 O.3       1 ACP        -0.7989
      4 O3G        -0.7171    8.0793    2.1873 O.3       1 ACP        -0.7989
      5 PB         -0.4924    5.1526    4.2900 P.3       1 ACP         1.4947
      6 O1B        -1.5295    5.3830    5.3646 O.co2     1 ACP        -0.8554
      7 O2B         0.4811    3.9980    4.3421 O.co2     1 ACP        -0.8554
      8 C3B         0.5016    6.7056    4.1451 C.3       1 ACP        -0.6550
      9 PA         -0.5788    5.0300    1.3263 P.3       1 ACP         1.5921
     10 O1A         0.5648    6.0081    1.1646 O.co2     1 ACP        -0.8561
     11 O2A        -1.7187    5.0058    0.3313 O.co2     1 ACP        -0.8561
     12 O3A        -1.2048    5.2086    2.8242 O.3       1 ACP        -0.8166
     13 O5'         0.0182    3.5132    1.4596 O.3       1 ACP        -0.5737
     14 C5'        -0.8811    2.4285    1.6206 C.3       1 ACP         0.2197
     15 C4'        -0.1994    1.3333    2.4288 C.3       1 ACP         0.0944
     16 O4'        -1.1285    0.2356    2.5840 O.3       1 ACP        -0.4017
     17 C3'         1.0324    0.7610    1.7344 C.3       1 ACP         0.0859
     18 O3'         1.9175    0.2377    2.7247 O.3       1 ACP        -0.5941
     19 C2'         0.4468   -0.3802    0.9263 C.3       1 ACP         0.0924
     20 O2'         1.3993   -1.3703    0.5961 O.3       1 ACP        -0.5928
     21 C1'        -0.6159   -0.9100    1.8769 C.3       1 ACP         0.3967
     22 N9         -1.7127   -1.6108    1.2130 N.pl3     1 ACP        -0.6763
     23 C8         -2.5476   -1.0844    0.2632 C.ar      1 ACP         0.5586
     24 N7         -3.4391   -1.9591   -0.1536 N.2       1 ACP        -0.5795
     25 C5         -3.1701   -3.1016    0.5574 C.ar      1 ACP        -0.2116
     26 C6         -3.7593   -4.3620    0.5656 C.ar      1 ACP         0.7185
     27 N6         -4.8512   -4.6493   -0.2712 N.pl3     1 ACP        -0.9442
     28 N1         -3.2659   -5.3144    1.3932 N.ar      1 ACP        -0.8040
     29 C2         -2.2122   -4.9785    2.1759 C.ar      1 ACP         0.6560
     30 N3         -1.5595   -3.7985    2.2572 N.ar      1 ACP        -0.7058
     31 C4         -2.0986   -2.9054    1.4140 C.ar      1 ACP         0.5729
     32 HOG2        0.9359   10.1831    3.2350 H         1 ACP         0.4440
     33 HOG3       -1.0807    8.8419    1.6891 H         1 ACP         0.4440
     34 H3B1        1.2847    6.4863    3.4106 H         1 ACP         0.1084
     35 H3B2        0.9988    6.8339    5.1134 H         1 ACP         0.1084
     36 H5'1       -1.7769    2.7852    2.1386 H         1 ACP         0.0281
     37 H5'2       -1.1652    2.0544    0.6320 H         1 ACP         0.0281
     38 H4'         0.0403    1.7078    3.4343 H         1 ACP         0.1082
     39 H3'         1.5906    1.4859    1.1353 H         1 ACP         0.0650
     40 HO3'        2.6839   -0.1150    2.2479 H         1 ACP         0.4300
     41 H2'        -0.0017    0.0018    0.0005 H         1 ACP         0.0785
     42 HO2'        0.9369   -2.0558    0.0825 H         1 ACP         0.4275
     43 H1'        -0.1998   -1.6319    2.6178 H         1 ACP         0.1009
     44 H8         -2.4576   -0.0639   -0.0831 H         1 ACP         0.1067
     45 HN61       -5.2371   -3.9234   -0.8448 H         1 ACP         0.4213
     46 HN62       -5.2909   -5.5485   -0.2160 H         1 ACP         0.4213
     47 H2         -1.8433   -5.7650    2.8259 H         1 ACP         0.0365
@<TRIPOS>BOND
     1    1    2 2
     2    1    3 1
     3    1    4 1
     4    1    8 1
     5    3   32 1
     6    4   33 1
     7    5    6 2
     8    5    7 1
     9    5    8 1
    10    5   12 1
    11    8   34 1
    12    8   35 1
    13    9   10 2
    14    9   11 1
    15    9   12 1
    16    9   13 1
    17   13   14 1
    18   14   15 1
    19   14   36 1
    20   14   37 1
    21   15   16 1
    22   15   17 1
    23   15   38 1
    24   16   21 1
    25   17   18 1
    26   17   19 1
    27   17   39 1
    28   18   40 1
    29   19   20 1
    30   19   21 1
    31   19   41 1
    32   20   42 1
    33   21   22 1
    34   21   43 1
    35   22   23 ar
    36   22   31 ar
    37   23   24 ar
    38   23   44 1
    39   24   25 ar
    40   25   26 ar
    41   25   31 ar
    42   26   27 1
    43   26   28 ar
    44   27   45 1
    45   27   46 1
    46   28   29 ar
    47   29   30 ar
    48   29   47 1
    49   30   31 ar
@<TRIPOS>SUBSTRUCTURE
     1 ACP         1 GROUP 0 A     ****
@<TRIPOS>MOLECULE
[[5-(6-aminopurin-9-yl)-3,4-dihydroxy-tetrahydrofuran-2-yl]methoxy-oxido-phosphoryl]oxy-(phosphonomethyl)phosphinate
   47    49     1     0     0
SMALL
USER_CHARGES

@<TRIPOS>ATOM
      1 PG         -5.9792    0.5854   -5.4300 P.3       1 ACP         1.6478
      2 O1G        -4.7858    0.3992   -6.3180 O.2       1 ACP        -0.9103
      3 O2G        -6.7064   -0.7753   -4.9505 O.3       1 ACP        -0.7989
      4 O3G        -7.1837    1.4569   -6.0619 O.3       1 ACP        -0.7989
      5 PB         -4.4297    0.7914   -2.6217 P.3       1 ACP         1.4947
      6 O1B        -4.9277   -0.5667   -2.1844 O.co2     1 ACP        -0.8554
      7 O2B        -4.1613    1.9075   -1.6391 O.co2     1 ACP        -0.8554
      8 C3B        -5.6266    1.4367   -3.8756 C.3       1 ACP        -0.6550
      9 PA         -2.2218    1.7171   -4.3750 P.3       1 ACP         1.5921
     10 O1A        -3.1253    2.6237   -5.1827 O.co2     1 ACP        -0.8561
     11 O2A        -1.0617    1.0011   -5.0320 O.co2     1 ACP        -0.8561
     12 O3A        -3.1480    0.6084   -3.6132 O.3       1 ACP        -0.8166
     13 O5'        -1.6520    2.5338   -3.0775 O.3       1 ACP        -0.5737
     14 C5'        -0.7794    1.8744   -2.1748 C.3       1 ACP         0.2197
     15 C4'        -0.9699    2.4597   -0.7819 C.3       1 ACP         0.0944
     16 O4'        -2.1475    1.8640   -0.2014 O.3       1 ACP        -0.4017
     17 C3'         0.1697    2.1347    0.1695 C.3       1 ACP         0.0859
     18 O3'         0.1809    3.0982    1.2223 O.3       1 ACP        -0.5941
     19 C2'        -0.2543    0.7880    0.7187 C.3       1 ACP         0.0924
     20 O2'         0.3606    0.4944    1.9582 O.3       1 ACP        -0.5928
     21 C1'        -1.7682    0.9516    0.8548 C.3       1 ACP         0.3967
     22 N9         -2.5926   -0.2553    0.7436 N.pl3     1 ACP        -0.6763
     23 C8         -2.2879   -1.3752    0.0161 C.ar      1 ACP         0.5586
     24 N7         -3.2214   -2.2987    0.1123 N.2       1 ACP        -0.5795
     25 C5         -4.1723   -1.7531    0.9377 C.ar      1 ACP        -0.2116
     26 C6         -5.3870   -2.2342    1.4159 C.ar      1 ACP         0.7185
     27 N6         -5.8433   -3.5142    1.0574 N.pl3     1 ACP        -0.9442
     28 N1         -6.1289   -1.4512    2.2356 N.ar      1 ACP        -0.8040
     29 C2         -5.6370   -0.2275    2.5461 C.ar      1 ACP         0.6560
     30 N3         -4.4810    0.3469    2.1476 N.ar      1 ACP        -0.7058
     31 C4         -3.7996   -0.4810    1.3417 C.ar      1 ACP         0.5729
     32 HOG2       -7.0747   -1.3814   -5.6281 H         1 ACP         0.4440
     33 HOG3       -7.6146    1.1448   -6.8859 H         1 ACP         0.4440
     34 H3B1       -5.2783    2.4459   -4.1225 H         1 ACP         0.1084
     35 H3B2       -6.5809    1.5482   -3.3484 H         1 ACP         0.1084
     36 H5'1       -1.0116    0.8048   -2.1755 H         1 ACP         0.0281
     37 H5'2        0.2522    2.0163   -2.5121 H         1 ACP         0.0281
     38 H4'        -1.1469    3.5409   -0.8522 H         1 ACP         0.1082
     39 H3'         1.1601    2.1310   -0.2934 H         1 ACP         0.0650
     40 HO3'        0.9173    2.8584    1.8048 H         1 ACP         0.4300
     41 H2'        -0.0024   -0.0091    0.0062 H         1 ACP         0.0785
     42 HO2'        0.0384   -0.3797    2.2403 H         1 ACP         0.4275
     43 H1'        -2.0584    1.4255    1.8301 H         1 ACP         0.1009
     44 H8         -1.3765   -1.4593   -0.5599 H         1 ACP         0.1067
     45 HN61       -5.3086   -4.0656    0.4134 H         1 ACP         0.4213
     46 HN62       -6.7426   -3.8233    1.3745 H         1 ACP         0.4213
     47 H2         -6.2570    0.3723    3.2040 H         1 ACP         0.0365
@<TRIPOS>BOND
     1    1    2 2
     2    1    3 1
     3    1    4 1
     4    1    8 1
     5    3   32 1
     6    4   33 1
     7    5    6 2
     8    5    7 1
     9    5    8 1
    10    5   12 1
    11    8   34 1
    12    8   35 1
    13    9   10 2
    14    9   11 1
    15    9   12 1
    16    9   13 1
    17   13   14 1
    18   14   15 1
    19   14   36 1
    20   14   37 1
    21   15   16 1
    22   15   17 1
    23   15   38 1
    24   16   21 1
    25   17   18 1
    26   17   19 1
    27   17   39 1
    28   18   40 1
    29   19   20 1
    30   19   21 1
    31   19   41 1
    32   20   42 1
    33   21   22 1
    34   21   43 1
    35   22   23 ar
    36   22   31 ar
    37   23   24 ar
    38   23   44 1
    39   24   25 ar
    40   25   26 ar
    41   25   31 ar
    42   26   27 1
    43   26   28 ar
    44   27   45 1
    45   27   46 1
    46   28   29 ar
    47   29   30 ar
    48   29   47 1
    49   30   31 ar
@<TRIPOS>SUBSTRUCTURE
     1 ACP         1 GROUP 0 A     ****
@<TRIPOS>MOLECULE
[[5-(6-aminopurin-9-yl)-3,4-dihydroxy-tetrahydrofuran-2-yl]methoxy-oxido-phosphoryl]oxy-(phosphonomethyl)phosphinate
   47    49     1     0     0
SMALL
USER_CHARGES

@<TRIPOS>ATOM
      1 PG          1.7483    5.7697    2.8603 P.3       1 ACP         1.6478
      2 O1G         1.4585    4.3260    2.5792 O.2       1 ACP        -0.9103
      3 O2G         2.1896    6.6511    1.5802 O.3       1 ACP        -0.7989
      4 O3G         2.9241    6.0441    3.9336 O.3       1 ACP        -0.7989
      5 PB         -1.2569    6.8883    2.6416 P.3       1 ACP         1.4947
      6 O1B        -0.9599    7.5886    1.3358 O.co2     1 ACP        -0.8554
      7 O2B        -2.2632    7.4234    3.6338 O.co2     1 ACP        -0.8554
      8 C3B         0.3498    6.6929    3.5367 C.3       1 ACP        -0.6550
      9 PA         -1.9154    4.0917    3.3841 P.3       1 ACP         1.5921
     10 O1A        -3.2739    4.3706    3.9902 O.co2     1 ACP        -0.8561
     11 O2A        -0.7157    3.8308    4.2687 O.co2     1 ACP        -0.8561
     12 O3A        -1.5461    5.3085    2.3591 O.3       1 ACP        -0.8166
     13 O5'        -2.0402    2.8619    2.3132 O.3       1 ACP        -0.5737
     14 C5'        -0.8811    2.4285    1.6206 C.3       1 ACP         0.2197
     15 C4'        -0.1994    1.3333    2.4288 C.3       1 ACP         0.0944
     16 O4'        -1.1285    0.2356    2.5840 O.3       1 ACP        -0.4017
     17 C3'         1.0324    0.7610    1.7344 C.3       1 ACP         0.0859
     18 O3'         1.9175    0.2377    2.7247 O.3       1 ACP        -0.5941
     19 C2'         0.4468   -0.3802    0.9263 C.3       1 ACP         0.0924
     20 O2'         1.3993   -1.3703    0.5961 O.3       1 ACP        -0.5928
     21 C1'        -0.6159   -0.9100    1.8769 C.3       1 ACP         0.3967
     22 N9         -1.7127   -1.6108    1.2130 N.pl3     1 ACP        -0.6763
     23 C8         -2.5476   -1.0844    0.2632 C.ar      1 ACP         0.5586
     24 N7         -3.4391   -1.9591   -0.1536 N.2       1 ACP        -0.5795
     25 C5         -3.1701   -3.1016    0.5574 C.ar      1 ACP        -0.2116
     26 C6         -3.7593   -4.3620    0.5656 C.ar      1 ACP         0.7185
     27 N6         -4.8512   -4.6493   -0.2712 N.pl3     1 ACP        -0.9442
     28 N1         -3.2659   -5.3144    1.3932 N.ar      1 ACP        -0.8040
     29 C2         -2.2122   -4.9785    2.1759 C.ar      1 ACP         0.6560
     30 N3         -1.5595   -3.7985    2.2572 N.ar      1 ACP        -0.7058
     31 C4         -2.0986   -2.9054    1.4140 C.ar      1 ACP         0.5729
     32 HOG2        2.9954    6.3958    1.0827 H         1 ACP         0.4440
     33 HOG3        3.8265    5.7088    3.7459 H         1 ACP         0.4440
     34 H3B1        0.0950    6.2460    4.5043 H         1 ACP         0.1084
     35 H3B2        0.7054    7.7098    3.7384 H         1 ACP         0.1084
     36 H5'1       -1.1771    2.0504    0.6370 H         1 ACP         0.0281
     37 H5'2       -0.2083    3.2816    1.4878 H         1 ACP         0.0281
     38 H4'         0.0403    1.7078    3.4343 H         1 ACP         0.1082
     39 H3'         1.5906    1.4859    1.1353 H         1 ACP         0.0650
     40 HO3'        2.6839   -0.1150    2.2479 H         1 ACP         0.4300
     41 H2'        -0.0017    0.0018    0.0005 H         1 ACP         0.0785
     42 HO2'        2.0953   -0.9375    0.0709 H         1 ACP         0.4275
     43 H1'        -0.1998   -1.6319    2.6178 H         1 ACP         0.1009
     44 H8         -2.4576   -0.0639   -0.0831 H         1 ACP         0.1067
     45 HN61       -5.2371   -3.9234   -0.8448 H         1 ACP         0.4213
     46 HN62       -5.2909   -5.5485   -0.2160 H         1 ACP         0.4213
     47 H2         -1.8433   -5.7650    2.8259 H         1 ACP         0.0365
@<TRIPOS>BOND
     1    1    2 2
     2    1    3 1
     3    1    4 1
     4    1    8 1
     5    3   32 1
     6    4   33 1
     7    5    6 2
     8    5    7 1
     9    5    8 1
    10    5   12 1
    11    8   34 1
    12    8   35 1
    13    9   10 2
    14    9   11 1
    15    9   12 1
    16    9   13 1
    17   13   14 1
    18   14   15 1
    19   14   36 1
    20   14   37 1
    21   15   16 1
    22   15   17 1
    23   15   38 1
    24   16   21 1
    25   17   18 1
    26   17   19 1
    27   17   39 1
    28   18   40 1
    29   19   20 1
    30   19   21 1
    31   19   41 1
    32   20   42 1
    33   21   22 1
    34   21   43 1
    35   22   23 ar
    36   22   31 ar
    37   23   24 ar
    38   23   44 1
    39   24   25 ar
    40   25   26 ar
    41   25   31 ar
    42   26   27 1
    43   26   28 ar
    44   27   45 1
    45   27   46 1
    46   28   29 ar
    47   29   30 ar
    48   29   47 1
    49   30   31 ar
@<TRIPOS>SUBSTRUCTURE
     1 ACP         1 GROUP 0 A     ****
@<TRIPOS>MOLECULE
[[5-(6-aminopurin-9-yl)-3,4-dihydroxy-tetrahydrofuran-2-yl]methoxy-oxido-phosphoryl]oxy-(phosphonomethyl)phosphinate
   47    49     1     0     0
SMALL
USER_CHARGES

@<TRIPOS>ATOM
      1 PG          4.7277    0.9164   -4.1139 P.3       1 ACP         1.6478
      2 O1G         5.9344    1.6049   -4.6772 O.2       1 ACP        -0.9103
      3 O2G         3.7716    1.8357   -3.1914 O.3       1 ACP        -0.7989
      4 O3G         5.0342   -0.3669   -3.1819 O.3       1 ACP        -0.7989
      5 PB          2.0329   -0.6333   -4.9303 P.3       1 ACP         1.4947
      6 O1B         2.4196   -1.8476   -4.1181 O.co2     1 ACP        -0.8554
      7 O2B         1.2111   -0.7359   -6.1942 O.co2     1 ACP        -0.8554
      8 C3B         3.5948    0.2596   -5.3592 C.3       1 ACP        -0.6550
      9 PA          0.8118    1.9901   -4.2726 P.3       1 ACP         1.5921
     10 O1A        -0.4259    1.8446   -5.1315 O.co2     1 ACP        -0.8561
     11 O2A         1.9622    2.8653   -4.7205 O.co2     1 ACP        -0.8561
     12 O3A         1.3938    0.4993   -3.9465 O.3       1 ACP        -0.8166
     13 O5'         0.3757    2.4482   -2.7643 O.3       1 ACP        -0.5737
     14 C5'        -0.7794    1.8744   -2.1748 C.3       1 ACP         0.2197
     15 C4'        -0.9699    2.4597   -0.7819 C.3       1 ACP         0.0944
     16 O4'        -2.1475    1.8640   -0.2014 O.3       1 ACP        -0.4017
     17 C3'         0.1697    2.1347    0.1695 C.3       1 ACP         0.0859
     18 O3'         0.1809    3.0982    1.2223 O.3       1 ACP        -0.5941
     19 C2'        -0.2543    0.7880    0.7187 C.3       1 ACP         0.0924
     20 O2'         0.3606    0.4944    1.9582 O.3       1 ACP        -0.5928
     21 C1'        -1.7682    0.9516    0.8548 C.3       1 ACP         0.3967
     22 N9         -2.5926   -0.2553    0.7436 N.pl3     1 ACP        -0.6763
     23 C8         -2.9796   -1.0650    1.7783 C.ar      1 ACP         0.5586
     24 N7         -3.7205   -2.0736    1.3689 N.2       1 ACP        -0.5795
     25 C5         -3.8171   -1.9102    0.0098 C.ar      1 ACP        -0.2116
     26 C6         -4.4622   -2.6452   -0.9798 C.ar      1 ACP         0.7185
     27 N6         -5.1910   -3.8019   -0.6548 N.pl3     1 ACP        -0.9442
     28 N1         -4.3799   -2.2309   -2.2672 N.ar      1 ACP        -0.8040
     29 C2         -3.6636   -1.1087   -2.5188 C.ar      1 ACP         0.6560
     30 N3         -2.9978   -0.3162   -1.6507 N.ar      1 ACP        -0.7058
     31 C4         -3.1216   -0.7837   -0.3994 C.ar      1 ACP         0.5729
     32 HOG2        4.1439    2.2451   -2.3816 H         1 ACP         0.4440
     33 HOG3        5.5729   -0.2475   -2.3709 H         1 ACP         0.4440
     34 H3B1        3.2901    1.0932   -6.0020 H         1 ACP         0.1084
     35 H3B2        4.1722   -0.4311   -5.9842 H         1 ACP         0.1084
     36 H5'1       -1.6462    2.0968   -2.8052 H         1 ACP         0.0281
     37 H5'2       -0.6469    0.7893   -2.1194 H         1 ACP         0.0281
     38 H4'        -1.1469    3.5409   -0.8522 H         1 ACP         0.1082
     39 H3'         1.1601    2.1310   -0.2934 H         1 ACP         0.0650
     40 HO3'        0.3098    3.9616    0.8017 H         1 ACP         0.4300
     41 H2'        -0.0024   -0.0091    0.0062 H         1 ACP         0.0785
     42 HO2'        0.0972    1.1923    2.5835 H         1 ACP         0.4275
     43 H1'        -2.0584    1.4255    1.8301 H         1 ACP         0.1009
     44 H8         -2.6931   -0.8698    2.8026 H         1 ACP         0.1067
     45 HN61       -5.6874   -4.2906   -1.3757 H         1 ACP         0.4213
     46 HN62       -5.2842   -4.0717    0.3062 H         1 ACP         0.4213
     47 H2         -3.6188   -0.8065   -3.5598 H         1 ACP         0.0365
@<TRIPOS>BOND
     1    1    2 2
     2    1    3 1
     3    1    4 1
     4    1    8 1
     5    3   32 1
     6    4   33 1
     7    5    6 2
     8    5    7 1
     9    5    8 1
    10    5   12 1
    11    8   34 1
    12    8   35 1
    13    9   10 2
    14    9   11 1
    15    9   12 1
    16    9   13 1
    17   13   14 1
    18   14   15 1
    19   14   36 1
    20   14   37 1
    21   15   16 1
    22   15   17 1
    23   15   38 1
    24   16   21 1
    25   17   18 1
    26   17   19 1
    27   17   39 1
    28   18   40 1
    29   19   20 1
    30   19   21 1
    31   19   41 1
    32   20   42 1
    33   21   22 1
    34   21   43 1
    35   22   23 ar
    36   22   31 ar
    37   23   24 ar
    38   23   44 1
    39   24   25 ar
    40   25   26 ar
    41   25   31 ar
    42   26   27 1
    43   26   28 ar
    44   27   45 1
    45   27   46 1
    46   28   29 ar
    47   29   30 ar
    48   29   47 1
    49   30   31 ar
@<TRIPOS>SUBSTRUCTURE
     1 ACP         1 GROUP 0 A     ****
@<TRIPOS>MOLECULE
[[5-(6-aminopurin-9-yl)-3,4-dihydroxy-tetrahydrofuran-2-yl]methoxy-oxido-phosphoryl]oxy-(phosphonomethyl)phosphinate
   47    49     1     0     0
SMALL
USER_CHARGES

@<TRIPOS>ATOM
      1 PG         -0.3667    3.2356   -7.6561 P.3       1 ACP         1.6478
      2 O1G        -0.9181    4.0819   -8.7638 O.2       1 ACP        -0.9103
      3 O2G        -0.6425    3.7832   -6.1613 O.3       1 ACP        -0.7989
      4 O3G         1.2324    3.0085   -7.6880 O.3       1 ACP        -0.7989
      5 PB         -0.5052    0.3059   -6.3417 P.3       1 ACP         1.4947
      6 O1B         0.9860    0.1096   -6.4876 O.co2     1 ACP        -0.8554
      7 O2B        -1.4821   -0.8445   -6.4181 O.co2     1 ACP        -0.8554
      8 C3B        -1.0208    1.5518   -7.6078 C.3       1 ACP        -0.6550
      9 PA         -2.2218    1.7171   -4.3750 P.3       1 ACP         1.5921
     10 O1A        -3.0049    0.5102   -3.9053 O.co2     1 ACP        -0.8561
     11 O2A        -2.8420    2.7148   -5.3289 O.co2     1 ACP        -0.8561
     12 O3A        -0.8096    1.2016   -5.0135 O.3       1 ACP        -0.8166
     13 O5'        -1.6520    2.5338   -3.0775 O.3       1 ACP        -0.5737
     14 C5'        -0.7794    1.8744   -2.1748 C.3       1 ACP         0.2197
     15 C4'        -0.9699    2.4597   -0.7819 C.3       1 ACP         0.0944
     16 O4'        -2.1475    1.8640   -0.2014 O.3       1 ACP        -0.4017
     17 C3'         0.1697    2.1347    0.1695 C.3       1 ACP         0.0859
     18 O3'         0.1809    3.0982    1.2223 O.3       1 ACP        -0.5941
     19 C2'        -0.2543    0.7880    0.7187 C.3       1 ACP         0.0924
     20 O2'         0.3606    0.4944    1.9582 O.3       1 ACP        -0.5928
     21 C1'        -1.7682    0.9516    0.8548 C.3       1 ACP         0.3967
     22 N9         -2.5926   -0.2553    0.7436 N.pl3     1 ACP        -0.6763
     23 C8         -3.5599   -0.4866   -0.1983 C.ar      1 ACP         0.5586
     24 N7         -4.1294   -1.6639   -0.0461 N.2       1 ACP        -0.5795
     25 C5         -3.5041   -2.2191    1.0420 C.ar      1 ACP        -0.2116
     26 C6         -3.6604   -3.4390    1.6925 C.ar      1 ACP         0.7185
     27 N6         -4.6108   -4.3735    1.2468 N.pl3     1 ACP        -0.9442
     28 N1         -2.8820   -3.7179    2.7657 N.ar      1 ACP        -0.8040
     29 C2         -1.9837   -2.7784    3.1481 C.ar      1 ACP         0.6560
     30 N3         -1.7408   -1.5668    2.6022 N.ar      1 ACP        -0.7058
     31 C4         -2.5438   -1.3578    1.5483 C.ar      1 ACP         0.5729
     32 HOG2       -0.2973    4.6654   -5.9073 H         1 ACP         0.4440
     33 HOG3        1.8243    3.7888   -7.6352 H         1 ACP         0.4440
     34 H3B1       -2.1111    1.6225   -7.5240 H         1 ACP         0.1084
     35 H3B2       -0.8041    1.0966   -8.5809 H         1 ACP         0.1084
     36 H5'1       -1.0116    0.8048   -2.1755 H         1 ACP         0.0281
     37 H5'2        0.2522    2.0163   -2.5121 H         1 ACP         0.0281
     38 H4'        -1.1469    3.5409   -0.8522 H         1 ACP         0.1082
     39 H3'         1.1601    2.1310   -0.2934 H         1 ACP         0.0650
     40 HO3'        0.9173    2.8584    1.8048 H         1 ACP         0.4300
     41 H2'        -0.0024   -0.0091    0.0062 H         1 ACP         0.0785
     42 HO2'        0.0384   -0.3797    2.2403 H         1 ACP         0.4275
     43 H1'        -2.0584    1.4255    1.8301 H         1 ACP         0.1009
     44 H8         -3.8030    0.2355   -0.9657 H         1 ACP         0.1067
     45 HN61       -5.2130   -4.1372    0.4810 H         1 ACP         0.4213
     46 HN62       -4.7404   -5.2263    1.7576 H         1 ACP         0.4213
     47 H2         -1.3778   -3.0348    4.0107 H         1 ACP         0.0365
@<TRIPOS>BOND
     1    1    2 2
     2    1    3 1
     3    1    4 1
     4    1    8 1
     5    3   32 1
     6    4   33 1
     7    5    6 2
     8    5    7 1
     9    5    8 1
    10    5   12 1
    11    8   34 1
    12    8   35 1
    13    9   10 2
    14    9   11 1
    15    9   12 1
    16    9   13 1
    17   13   14 1
    18   14   15 1
    19   14   36 1
    20   14   37 1
    21   15   16 1
    22   15   17 1
    23   15   38 1
    24   16   21 1
    25   17   18 1
    26   17   19 1
    27   17   39 1
    28   18   40 1
    29   19   20 1
    30   19   21 1
    31   19   41 1
    32   20   42 1
    33   21   22 1
    34   21   43 1
    35   22   23 ar
    36   22   31 ar
    37   23   24 ar
    38   23   44 1
    39   24   25 ar
    40   25   26 ar
    41   25   31 ar
    42   26   27 1
    43   26   28 ar
    44   27   45 1
    45   27   46 1
    46   28   29 ar
    47   29   30 ar
    48   29   47 1
    49   30   31 ar
@<TRIPOS>SUBSTRUCTURE
     1 ACP         1 GROUP 0 A     ****
@<TRIPOS>MOLECULE
[[5-(6-aminopurin-9-yl)-3,4-dihydroxy-tetrahydrofuran-2-yl]methoxy-oxido-phosphoryl]oxy-(phosphonomethyl)phosphinate
   47    49     1     0     0
SMALL
USER_CHARGES

@<TRIPOS>ATOM
      1 PG         -3.5049    7.8314    3.4152 P.3       1 ACP         1.6478
      2 O1G        -2.7613    9.0796    3.0459 O.2       1 ACP        -0.9103
      3 O2G        -4.9965    8.0575    3.9933 O.3       1 ACP        -0.7989
      4 O3G        -2.7980    6.9106    4.5387 O.3       1 ACP        -0.7989
      5 PB         -2.3703    5.9214    1.0926 P.3       1 ACP         1.4947
      6 O1B        -1.5793    7.0508    0.4742 O.co2     1 ACP        -0.8554
      7 O2B        -2.9514    4.7966    0.2675 O.co2     1 ACP        -0.8554
      8 C3B        -3.7617    6.6831    2.0437 C.3       1 ACP        -0.6550
      9 PA         -1.9154    4.0917    3.3841 P.3       1 ACP         1.5921
     10 O1A        -3.2739    4.3706    3.9902 O.co2     1 ACP        -0.8561
     11 O2A        -0.7157    3.8308    4.2687 O.co2     1 ACP        -0.8561
     12 O3A        -1.5461    5.3085    2.3591 O.3       1 ACP        -0.8166
     13 O5'        -2.0402    2.8619    2.3132 O.3       1 ACP        -0.5737
     14 C5'        -0.8811    2.4285    1.6206 C.3       1 ACP         0.2197
     15 C4'        -0.1994    1.3333    2.4288 C.3       1 ACP         0.0944
     16 O4'        -1.1285    0.2356    2.5840 O.3       1 ACP        -0.4017
     17 C3'         1.0324    0.7610    1.7344 C.3       1 ACP         0.0859
     18 O3'         1.9175    0.2377    2.7247 O.3       1 ACP        -0.5941
     19 C2'         0.4468   -0.3802    0.9263 C.3       1 ACP         0.0924
     20 O2'         1.3993   -1.3703    0.5961 O.3       1 ACP        -0.5928
     21 C1'        -0.6159   -0.9100    1.8769 C.3       1 ACP         0.3967
     22 N9         -1.7127   -1.6108    1.2130 N.pl3     1 ACP        -0.6763
     23 C8         -1.7712   -2.9546    0.9544 C.ar      1 ACP         0.5586
     24 N7         -2.8883   -3.2948    0.3462 N.2       1 ACP        -0.5795
     25 C5         -3.5834   -2.1202    0.2043 C.ar      1 ACP        -0.2116
     26 C6         -4.8225   -1.8251   -0.3554 C.ar      1 ACP         0.7185
     27 N6         -5.6154   -2.8394   -0.9189 N.pl3     1 ACP        -0.9442
     28 N1         -5.2589   -0.5425   -0.3507 N.ar      1 ACP        -0.8040
     29 C2         -4.4510    0.3913    0.2069 C.ar      1 ACP         0.6560
     30 N3         -3.2368    0.2296    0.7767 N.ar      1 ACP        -0.7058
     31 C4         -2.8684   -1.0596    0.7376 C.ar      1 ACP         0.5729
     32 HOG2       -5.1143    8.5893    4.8090 H         1 ACP         0.4440
     33 HOG3       -2.6262    7.2915    5.4261 H         1 ACP         0.4440
     34 H3B1       -4.3541    5.8425    2.4224 H         1 ACP         0.1084
     35 H3B2       -4.3810    7.2025    1.3035 H         1 ACP         0.1084
     36 H5'1       -1.1771    2.0504    0.6370 H         1 ACP         0.0281
     37 H5'2       -0.2083    3.2816    1.4878 H         1 ACP         0.0281
     38 H4'         0.0403    1.7078    3.4343 H         1 ACP         0.1082
     39 H3'         1.5906    1.4859    1.1353 H         1 ACP         0.0650
     40 HO3'        2.1521    0.9800    3.3017 H         1 ACP         0.4300
     41 H2'        -0.0017    0.0018    0.0005 H         1 ACP         0.0785
     42 HO2'        1.7495   -1.7243    1.4324 H         1 ACP         0.4275
     43 H1'        -0.1998   -1.6319    2.6178 H         1 ACP         0.1009
     44 H8         -0.9745   -3.6312    1.2318 H         1 ACP         0.1067
     45 HN61       -5.2619   -3.7766   -0.9586 H         1 ACP         0.4213
     46 HN62       -6.4834   -2.5990   -1.3590 H         1 ACP         0.4213
     47 H2         -4.8317    1.4071    0.1930 H         1 ACP         0.0365
@<TRIPOS>BOND
     1    1    2 2
     2    1    3 1
     3    1    4 1
     4    1    8 1
     5    3   32 1
     6    4   33 1
     7    5    6 2
     8    5    7 1
     9    5    8 1
    10    5   12 1
    11    8   34 1
    12    8   35 1
    13    9   10 2
    14    9   11 1
    15    9   12 1
    16    9   13 1
    17   13   14 1
    18   14   15 1
    19   14   36 1
    20   14   37 1
    21   15   16 1
    22   15   17 1
    23   15   38 1
    24   16   21 1
    25   17   18 1
    26   17   19 1
    27   17   39 1
    28   18   40 1
    29   19   20 1
    30   19   21 1
    31   19   41 1
    32   20   42 1
    33   21   22 1
    34   21   43 1
    35   22   23 ar
    36   22   31 ar
    37   23   24 ar
    38   23   44 1
    39   24   25 ar
    40   25   26 ar
    41   25   31 ar
    42   26   27 1
    43   26   28 ar
    44   27   45 1
    45   27   46 1
    46   28   29 ar
    47   29   30 ar
    48   29   47 1
    49   30   31 ar
@<TRIPOS>SUBSTRUCTURE
     1 ACP         1 GROUP 0 A     ****
@<TRIPOS>MOLECULE
[[5-(6-aminopurin-9-yl)-3,4-dihydroxy-tetrahydrofuran-2-yl]methoxy-oxido-phosphoryl]oxy-(phosphonomethyl)phosphinate
   47    49     1     0     0
SMALL
USER_CHARGES

@<TRIPOS>ATOM
      1 PG         -1.2486    6.8199    5.5687 P.3       1 ACP         1.6478
      2 O1G         0.0400    6.7671    6.3328 O.2       1 ACP        -0.9103
      3 O2G        -2.4367    7.6616    6.2688 O.3       1 ACP        -0.7989
      4 O3G        -1.9295    5.3881    5.2589 O.3       1 ACP        -0.7989
      5 PB         -0.0154    6.9094    2.6020 P.3       1 ACP         1.4947
      6 O1B         1.3995    6.9428    3.1316 O.co2     1 ACP        -0.8554
      7 O2B        -0.4100    7.5874    1.3104 O.co2     1 ACP        -0.8554
      8 C3B        -1.1147    7.5747    3.9323 C.3       1 ACP        -0.6550
      9 PA         -2.0037    4.7529    2.1525 P.3       1 ACP         1.5921
     10 O1A        -2.1554    4.9422    0.6587 O.co2     1 ACP        -0.8561
     11 O2A        -3.0660    5.2571    3.1051 O.co2     1 ACP        -0.8561
     12 O3A        -0.5638    5.3737    2.6095 O.3       1 ACP        -0.8166
     13 O5'        -1.7337    3.1724    2.4754 O.3       1 ACP        -0.5737
     14 C5'        -0.8811    2.4285    1.6206 C.3       1 ACP         0.2197
     15 C4'        -0.1994    1.3333    2.4288 C.3       1 ACP         0.0944
     16 O4'        -1.1285    0.2356    2.5840 O.3       1 ACP        -0.4017
     17 C3'         1.0324    0.7610    1.7344 C.3       1 ACP         0.0859
     18 O3'         1.9175    0.2377    2.7247 O.3       1 ACP        -0.5941
     19 C2'         0.4468   -0.3802    0.9263 C.3       1 ACP         0.0924
     20 O2'         1.3993   -1.3703    0.5961 O.3       1 ACP        -0.5928
     21 C1'        -0.6159   -0.9100    1.8769 C.3       1 ACP         0.3967
     22 N9         -1.7127   -1.6108    1.2130 N.pl3     1 ACP        -0.6763
     23 C8         -2.8641   -1.0399    0.7392 C.ar      1 ACP         0.5586
     24 N7         -3.6659   -1.9257    0.1858 N.2       1 ACP        -0.5795
     25 C5         -3.0053   -3.1223    0.3069 C.ar      1 ACP        -0.2116
     26 C6         -3.3321   -4.4178   -0.0813 C.ar      1 ACP         0.7185
     27 N6         -4.5476   -4.6866   -0.7335 N.pl3     1 ACP        -0.9442
     28 N1         -2.4608   -5.4225    0.1773 N.ar      1 ACP        -0.8040
     29 C2         -1.3053   -5.1020    0.8081 C.ar      1 ACP         0.6560
     30 N3         -0.8788   -3.8921    1.2315 N.ar      1 ACP        -0.7058
     31 C4         -1.7870   -2.9477    0.9438 C.ar      1 ACP         0.5729
     32 HOG2       -2.7588    7.3837    7.1526 H         1 ACP         0.4440
     33 HOG3       -2.1846    4.8109    6.0097 H         1 ACP         0.4440
     34 H3B1       -2.1200    7.6018    3.4970 H         1 ACP         0.1084
     35 H3B2       -0.8044    8.6148    4.0843 H         1 ACP         0.1084
     36 H5'1       -1.4802    1.9929    0.8148 H         1 ACP         0.0281
     37 H5'2       -0.1370    3.1043    1.1873 H         1 ACP         0.0281
     38 H4'         0.0403    1.7078    3.4343 H         1 ACP         0.1082
     39 H3'         1.5906    1.4859    1.1353 H         1 ACP         0.0650
     40 HO3'        2.1521    0.9800    3.3017 H         1 ACP         0.4300
     41 H2'        -0.0017    0.0018    0.0005 H         1 ACP         0.0785
     42 HO2'        2.0953   -0.9375    0.0709 H         1 ACP         0.4275
     43 H1'        -0.1998   -1.6319    2.6178 H         1 ACP         0.1009
     44 H8         -3.0609    0.0200    0.8250 H         1 ACP         0.1067
     45 HN61       -5.2046   -3.9433   -0.8775 H         1 ACP         0.4213
     46 HN62       -4.7849   -5.6332   -0.9625 H         1 ACP         0.4213
     47 H2         -0.6318   -5.9307    0.9993 H         1 ACP         0.0365
@<TRIPOS>BOND
     1    1    2 2
     2    1    3 1
     3    1    4 1
     4    1    8 1
     5    3   32 1
     6    4   33 1
     7    5    6 2
     8    5    7 1
     9    5    8 1
    10    5   12 1
    11    8   34 1
    12    8   35 1
    13    9   10 2
    14    9   11 1
    15    9   12 1
    16    9   13 1
    17   13   14 1
    18   14   15 1
    19   14   36 1
    20   14   37 1
    21   15   16 1
    22   15   17 1
    23   15   38 1
    24   16   21 1
    25   17   18 1
    26   17   19 1
    27   17   39 1
    28   18   40 1
    29   19   20 1
    30   19   21 1
    31   19   41 1
    32   20   42 1
    33   21   22 1
    34   21   43 1
    35   22   23 ar
    36   22   31 ar
    37   23   24 ar
    38   23   44 1
    39   24   25 ar
    40   25   26 ar
    41   25   31 ar
    42   26   27 1
    43   26   28 ar
    44   27   45 1
    45   27   46 1
    46   28   29 ar
    47   29   30 ar
    48   29   47 1
    49   30   31 ar
@<TRIPOS>SUBSTRUCTURE
     1 ACP         1 GROUP 0 A     ****
@<TRIPOS>MOLECULE
[[5-(6-aminopurin-9-yl)-3,4-dihydroxy-tetrahydrofuran-2-yl]methoxy-oxido-phosphoryl]oxy-(phosphonomethyl)phosphinate
   47    49     1     0     0
SMALL
USER_CHARGES

@<TRIPOS>ATOM
      1 PG         -3.1919    0.2174   -7.7183 P.3       1 ACP         1.6478
      2 O1G        -4.4351    0.4260   -8.5297 O.2       1 ACP        -0.9103
      3 O2G        -2.2296    1.5076   -7.5789 O.3       1 ACP        -0.7989
      4 O3G        -2.2003   -0.9394   -8.2549 O.3       1 ACP        -0.7989
      5 PB         -2.1326   -0.5800   -4.7905 P.3       1 ACP         1.4947
      6 O1B        -1.2986   -1.7137   -5.3407 O.co2     1 ACP        -0.8554
      7 O2B        -2.7569   -0.6308   -3.4153 O.co2     1 ACP        -0.8554
      8 C3B        -3.4933   -0.2620   -6.0022 C.3       1 ACP        -0.6550
      9 PA         -1.7483    2.3548   -4.5782 P.3       1 ACP         1.5921
     10 O1A        -3.0949    2.6646   -5.1958 O.co2     1 ACP        -0.8561
     11 O2A        -0.5594    3.2567   -4.8294 O.co2     1 ACP        -0.8561
     12 O3A        -1.3325    0.8279   -4.9821 O.3       1 ACP        -0.8166
     13 O5'        -1.9208    2.1717   -2.9622 O.3       1 ACP        -0.5737
     14 C5'        -0.7794    1.8744   -2.1748 C.3       1 ACP         0.2197
     15 C4'        -0.9699    2.4597   -0.7819 C.3       1 ACP         0.0944
     16 O4'        -2.1475    1.8640   -0.2014 O.3       1 ACP        -0.4017
     17 C3'         0.1697    2.1347    0.1695 C.3       1 ACP         0.0859
     18 O3'         0.1809    3.0982    1.2223 O.3       1 ACP        -0.5941
     19 C2'        -0.2543    0.7880    0.7187 C.3       1 ACP         0.0924
     20 O2'         0.3606    0.4944    1.9582 O.3       1 ACP        -0.5928
     21 C1'        -1.7682    0.9516    0.8548 C.3       1 ACP         0.3967
     22 N9         -2.5926   -0.2553    0.7436 N.pl3     1 ACP        -0.6763
     23 C8         -2.6465   -1.0979   -0.3350 C.ar      1 ACP         0.5586
     24 N7         -3.4765   -2.1012   -0.1400 N.2       1 ACP        -0.5795
     25 C5         -3.9826   -1.8994    1.1194 C.ar      1 ACP        -0.2116
     26 C6         -4.8981   -2.6116    1.8877 C.ar      1 ACP         0.7185
     27 N6         -5.4931   -3.7842    1.3916 N.pl3     1 ACP        -0.9442
     28 N1         -5.2111   -2.1602    3.1262 N.ar      1 ACP        -0.8040
     29 C2         -4.6051   -1.0248    3.5500 C.ar      1 ACP         0.6560
     30 N3         -3.7075   -0.2510    2.9016 N.ar      1 ACP        -0.7058
     31 C4         -3.4448   -0.7551    1.6866 C.ar      1 ACP         0.5729
     32 HOG2       -1.8534    1.9097   -8.3906 H         1 ACP         0.4440
     33 HOG3       -1.8206   -0.8596   -9.1557 H         1 ACP         0.4440
     34 H3B1       -4.1177    0.5146   -5.5463 H         1 ACP         0.1084
     35 H3B2       -4.0922   -1.1796   -6.0270 H         1 ACP         0.1084
     36 H5'1       -0.6602    0.7877   -2.1203 H         1 ACP         0.0281
     37 H5'2        0.1041    2.3072   -2.6545 H         1 ACP         0.0281
     38 H4'        -1.1469    3.5409   -0.8522 H         1 ACP         0.1082
     39 H3'         1.1601    2.1310   -0.2934 H         1 ACP         0.0650
     40 HO3'        0.9173    2.8584    1.8048 H         1 ACP         0.4300
     41 H2'        -0.0024   -0.0091    0.0062 H         1 ACP         0.0785
     42 HO2'        0.0384   -0.3797    2.2403 H         1 ACP         0.4275
     43 H1'        -2.0584    1.4255    1.8301 H         1 ACP         0.1009
     44 H8         -2.0609   -0.9301   -1.2286 H         1 ACP         0.1067
     45 HN61       -5.2894   -4.0827    0.4566 H         1 ACP         0.4213
     46 HN62       -6.1852   -4.2564    1.9420 H         1 ACP         0.4213
     47 H2         -4.8793   -0.6924    4.5457 H         1 ACP         0.0365
@<TRIPOS>BOND
     1    1    2 2
     2    1    3 1
     3    1    4 1
     4    1    8 1
     5    3   32 1
     6    4   33 1
     7    5    6 2
     8    5    7 1
     9    5    8 1
    10    5   12 1
    11    8   34 1
    12    8   35 1
    13    9   10 2
    14    9   11 1
    15    9   12 1
    16    9   13 1
    17   13   14 1
    18   14   15 1
    19   14   36 1
    20   14   37 1
    21   15   16 1
    22   15   17 1
    23   15   38 1
    24   16   21 1
    25   17   18 1
    26   17   19 1
    27   17   39 1
    28   18   40 1
    29   19   20 1
    30   19   21 1
    31   19   41 1
    32   20   42 1
    33   21   22 1
    34   21   43 1
    35   22   23 ar
    36   22   31 ar
    37   23   24 ar
    38   23   44 1
    39   24   25 ar
    40   25   26 ar
    41   25   31 ar
    42   26   27 1
    43   26   28 ar
    44   27   45 1
    45   27   46 1
    46   28   29 ar
    47   29   30 ar
    48   29   47 1
    49   30   31 ar
@<TRIPOS>SUBSTRUCTURE
     1 ACP         1 GROUP 0 A     ****
@<TRIPOS>MOLECULE
[[5-(6-aminopurin-9-yl)-3,4-dihydroxy-tetrahydrofuran-2-yl]methoxy-oxido-phosphoryl]oxy-(phosphonomethyl)phosphinate
   47    49     1     0     0
SMALL
USER_CHARGES

@<TRIPOS>ATOM
      1 PG         -4.3173    7.0344    3.0293 P.3       1 ACP         1.6478
      2 O1G        -3.3768    8.1922    3.1788 O.2       1 ACP        -0.9103
      3 O2G        -5.7808    7.2404    3.6818 O.3       1 ACP        -0.7989
      4 O3G        -3.8087    5.6415    3.6703 O.3       1 ACP        -0.7989
      5 PB         -3.3865    6.0658    0.1095 P.3       1 ACP         1.4947
      6 O1B        -2.4064    7.2089   -0.0178 O.co2     1 ACP        -0.8554
      7 O2B        -4.0955    5.4735   -1.0864 O.co2     1 ACP        -0.8554
      8 C3B        -4.6859    6.5895    1.3171 C.3       1 ACP        -0.6550
      9 PA         -3.3163    3.4232    1.4578 P.3       1 ACP         1.5921
     10 O1A        -3.5051    2.5730    0.2200 O.co2     1 ACP        -0.8561
     11 O2A        -4.4645    3.6557    2.4157 O.co2     1 ACP        -0.8561
     12 O3A        -2.7215    4.8747    1.0030 O.3       1 ACP        -0.8166
     13 O5'        -2.0402    2.8619    2.3132 O.3       1 ACP        -0.5737
     14 C5'        -0.8811    2.4285    1.6206 C.3       1 ACP         0.2197
     15 C4'        -0.1994    1.3333    2.4288 C.3       1 ACP         0.0944
     16 O4'        -1.1285    0.2356    2.5840 O.3       1 ACP        -0.4017
     17 C3'         1.0324    0.7610    1.7344 C.3       1 ACP         0.0859
     18 O3'         1.9175    0.2377    2.7247 O.3       1 ACP        -0.5941
     19 C2'         0.4468   -0.3802    0.9263 C.3       1 ACP         0.0924
     20 O2'         1.3993   -1.3703    0.5961 O.3       1 ACP        -0.5928
     21 C1'        -0.6159   -0.9100    1.8769 C.3       1 ACP         0.3967
     22 N9         -1.7127   -1.6108    1.2130 N.pl3     1 ACP        -0.6763
     23 C8         -2.5476   -1.0844    0.2632 C.ar      1 ACP         0.5586
     24 N7         -3.4391   -1.9591   -0.1536 N.2       1 ACP        -0.5795
     25 C5         -3.1701   -3.1016    0.5574 C.ar      1 ACP        -0.2116
     26 C6         -3.7593   -4.3620    0.5656 C.ar      1 ACP         0.7185
     27 N6         -4.8512   -4.6493   -0.2712 N.pl3     1 ACP        -0.9442
     28 N1         -3.2659   -5.3144    1.3932 N.ar      1 ACP        -0.8040
     29 C2         -2.2122   -4.9785    2.1759 C.ar      1 ACP         0.6560
     30 N3         -1.5595   -3.7985    2.2572 N.ar      1 ACP        -0.7058
     31 C4         -2.0986   -2.9054    1.4140 C.ar      1 ACP         0.5729
     32 HOG2       -5.8518    7.4111    4.6451 H         1 ACP         0.4440
     33 HOG3       -3.6199    5.6018    4.6319 H         1 ACP         0.4440
     34 H3B1       -5.4154    5.7720    1.3373 H         1 ACP         0.1084
     35 H3B2       -5.1858    7.4526    0.8630 H         1 ACP         0.1084
     36 H5'1       -1.1771    2.0504    0.6370 H         1 ACP         0.0281
     37 H5'2       -0.2083    3.2816    1.4878 H         1 ACP         0.0281
     38 H4'         0.0403    1.7078    3.4343 H         1 ACP         0.1082
     39 H3'         1.5906    1.4859    1.1353 H         1 ACP         0.0650
     40 HO3'        2.6839   -0.1150    2.2479 H         1 ACP         0.4300
     41 H2'        -0.0017    0.0018    0.0005 H         1 ACP         0.0785
     42 HO2'        2.0953   -0.9375    0.0709 H         1 ACP         0.4275
     43 H1'        -0.1998   -1.6319    2.6178 H         1 ACP         0.1009
     44 H8         -2.4576   -0.0639   -0.0831 H         1 ACP         0.1067
     45 HN61       -5.2371   -3.9234   -0.8448 H         1 ACP         0.4213
     46 HN62       -5.2909   -5.5485   -0.2160 H         1 ACP         0.4213
     47 H2         -1.8433   -5.7650    2.8259 H         1 ACP         0.0365
@<TRIPOS>BOND
     1    1    2 2
     2    1    3 1
     3    1    4 1
     4    1    8 1
     5    3   32 1
     6    4   33 1
     7    5    6 2
     8    5    7 1
     9    5    8 1
    10    5   12 1
    11    8   34 1
    12    8   35 1
    13    9   10 2
    14    9   11 1
    15    9   12 1
    16    9   13 1
    17   13   14 1
    18   14   15 1
    19   14   36 1
    20   14   37 1
    21   15   16 1
    22   15   17 1
    23   15   38 1
    24   16   21 1
    25   17   18 1
    26   17   19 1
    27   17   39 1
    28   18   40 1
    29   19   20 1
    30   19   21 1
    31   19   41 1
    32   20   42 1
    33   21   22 1
    34   21   43 1
    35   22   23 ar
    36   22   31 ar
    37   23   24 ar
    38   23   44 1
    39   24   25 ar
    40   25   26 ar
    41   25   31 ar
    42   26   27 1
    43   26   28 ar
    44   27   45 1
    45   27   46 1
    46   28   29 ar
    47   29   30 ar
    48   29   47 1
    49   30   31 ar
@<TRIPOS>SUBSTRUCTURE
     1 ACP         1 GROUP 0 A     ****
@<TRIPOS>MOLECULE
[[5-(6-aminopurin-9-yl)-3,4-dihydroxy-tetrahydrofuran-2-yl]methoxy-oxido-phosphoryl]oxy-(phosphonomethyl)phosphinate
   47    49     1     0     0
SMALL
USER_CHARGES

@<TRIPOS>ATOM
      1 PG         -7.0297    3.2143    2.5551 P.3       1 ACP         1.6478
      2 O1G        -7.9382    2.4238    1.6623 O.2       1 ACP        -0.9103
      3 O2G        -7.7501    3.9568    3.7960 O.3       1 ACP        -0.7989
      4 O3G        -6.2055    4.3997    1.8303 O.3       1 ACP        -0.7989
      5 PB         -4.4579    1.2927    2.4042 P.3       1 ACP         1.4947
      6 O1B        -5.1910    0.2868    1.5472 O.co2     1 ACP        -0.8554
      7 O2B        -3.3799    0.8864    3.3821 O.co2     1 ACP        -0.8554
      8 C3B        -5.7336    2.2391    3.3516 C.3       1 ACP        -0.6550
      9 PA         -3.0799    3.8626    1.8539 P.3       1 ACP         1.5921
     10 O1A        -3.8211    4.5962    2.9506 O.co2     1 ACP        -0.8561
     11 O2A        -2.7011    4.5719    0.5719 O.co2     1 ACP        -0.8561
     12 O3A        -3.9227    2.5173    1.4698 O.3       1 ACP        -0.8166
     13 O5'        -1.7337    3.1724    2.4754 O.3       1 ACP        -0.5737
     14 C5'        -0.8811    2.4285    1.6206 C.3       1 ACP         0.2197
     15 C4'        -0.1994    1.3333    2.4288 C.3       1 ACP         0.0944
     16 O4'        -1.1285    0.2356    2.5840 O.3       1 ACP        -0.4017
     17 C3'         1.0324    0.7610    1.7344 C.3       1 ACP         0.0859
     18 O3'         1.9175    0.2377    2.7247 O.3       1 ACP        -0.5941
     19 C2'         0.4468   -0.3802    0.9263 C.3       1 ACP         0.0924
     20 O2'         1.3993   -1.3703    0.5961 O.3       1 ACP        -0.5928
     21 C1'        -0.6159   -0.9100    1.8769 C.3       1 ACP         0.3967
     22 N9         -1.7127   -1.6108    1.2130 N.pl3     1 ACP        -0.6763
     23 C8         -2.5476   -1.0844    0.2632 C.ar      1 ACP         0.5586
     24 N7         -3.4391   -1.9591   -0.1536 N.2       1 ACP        -0.5795
     25 C5         -3.1701   -3.1016    0.5574 C.ar      1 ACP        -0.2116
     26 C6         -3.7593   -4.3620    0.5656 C.ar      1 ACP         0.7185
     27 N6         -4.8512   -4.6493   -0.2712 N.pl3     1 ACP        -0.9442
     28 N1         -3.2659   -5.3144    1.3932 N.ar      1 ACP        -0.8040
     29 C2         -2.2122   -4.9785    2.1759 C.ar      1 ACP         0.6560
     30 N3         -1.5595   -3.7985    2.2572 N.ar      1 ACP        -0.7058
     31 C4         -2.0986   -2.9054    1.4140 C.ar      1 ACP         0.5729
     32 HOG2       -8.4490    4.6200    3.6120 H         1 ACP         0.4440
     33 HOG3       -6.7011    5.1210    1.3874 H         1 ACP         0.4440
     34 H3B1       -5.1722    2.9106    4.0111 H         1 ACP         0.1084
     35 H3B2       -6.2343    1.5057    3.9939 H         1 ACP         0.1084
     36 H5'1       -1.4802    1.9929    0.8148 H         1 ACP         0.0281
     37 H5'2       -0.1370    3.1043    1.1873 H         1 ACP         0.0281
     38 H4'         0.0403    1.7078    3.4343 H         1 ACP         0.1082
     39 H3'         1.5906    1.4859    1.1353 H         1 ACP         0.0650
     40 HO3'        2.1521    0.9800    3.3017 H         1 ACP         0.4300
     41 H2'        -0.0017    0.0018    0.0005 H         1 ACP         0.0785
     42 HO2'        2.0953   -0.9375    0.0709 H         1 ACP         0.4275
     43 H1'        -0.1998   -1.6319    2.6178 H         1 ACP         0.1009
     44 H8         -2.4576   -0.0639   -0.0831 H         1 ACP         0.1067
     45 HN61       -5.2371   -3.9234   -0.8448 H         1 ACP         0.4213
     46 HN62       -5.2909   -5.5485   -0.2160 H         1 ACP         0.4213
     47 H2         -1.8433   -5.7650    2.8259 H         1 ACP         0.0365
@<TRIPOS>BOND
     1    1    2 2
     2    1    3 1
     3    1    4 1
     4    1    8 1
     5    3   32 1
     6    4   33 1
     7    5    6 2
     8    5    7 1
     9    5    8 1
    10    5   12 1
    11    8   34 1
    12    8   35 1
    13    9   10 2
    14    9   11 1
    15    9   12 1
    16    9   13 1
    17   13   14 1
    18   14   15 1
    19   14   36 1
    20   14   37 1
    21   15   16 1
    22   15   17 1
    23   15   38 1
    24   16   21 1
    25   17   18 1
    26   17   19 1
    27   17   39 1
    28   18   40 1
    29   19   20 1
    30   19   21 1
    31   19   41 1
    32   20   42 1
    33   21   22 1
    34   21   43 1
    35   22   23 ar
    36   22   31 ar
    37   23   24 ar
    38   23   44 1
    39   24   25 ar
    40   25   26 ar
    41   25   31 ar
    42   26   27 1
    43   26   28 ar
    44   27   45 1
    45   27   46 1
    46   28   29 ar
    47   29   30 ar
    48   29   47 1
    49   30   31 ar
@<TRIPOS>SUBSTRUCTURE
     1 ACP         1 GROUP 0 A     ****
@<TRIPOS>MOLECULE
[[5-(6-aminopurin-9-yl)-3,4-dihydroxy-tetrahydrofuran-2-yl]methoxy-oxido-phosphoryl]oxy-(phosphonomethyl)phosphinate
   47    49     1     0     0
SMALL
USER_CHARGES

@<TRIPOS>ATOM
      1 PG          5.8337    1.6592   -4.4523 P.3       1 ACP         1.6478
      2 O1G         6.6727    0.4207   -4.5504 O.2       1 ACP        -0.9103
      3 O2G         4.6266    1.5966   -3.3802 O.3       1 ACP        -0.7989
      4 O3G         5.1031    2.1113   -5.8203 O.3       1 ACP        -0.7989
      5 PB          7.6575    3.2802   -2.3604 P.3       1 ACP         1.4947
      6 O1B         8.2845    4.6545   -2.3197 O.co2     1 ACP        -0.8554
      7 O2B         8.4700    2.0171   -2.1931 O.co2     1 ACP        -0.8554
      8 C3B         6.7456    3.1407   -3.9635 C.3       1 ACP        -0.6550
      9 PA          6.2485    3.4955    0.2424 P.3       1 ACP         1.5921
     10 O1A         6.5918    4.9420    0.5255 O.co2     1 ACP        -0.8561
     11 O2A         6.9748    2.3768    0.9573 O.co2     1 ACP        -0.8561
     12 O3A         6.3651    3.2411   -1.3667 O.3       1 ACP        -0.8166
     13 O5'         4.6404    3.2702    0.4379 O.3       1 ACP        -0.5737
     14 C5'         4.0922    1.9801    0.2227 C.3       1 ACP         0.2197
     15 C4'         2.5944    2.0310    0.4653 C.3       1 ACP         0.0944
     16 O4'         1.9327    2.5740   -0.6889 O.3       1 ACP        -0.4017
     17 C3'         1.9685    0.6634    0.6767 C.3       1 ACP         0.0859
     18 O3'         2.1425    0.1975    1.9977 O.3       1 ACP        -0.5941
     19 C2'         0.5176    0.9128    0.3099 C.3       1 ACP         0.0924
     20 O2'        -0.2103    1.4454    1.4152 O.3       1 ACP        -0.5928
     21 C1'         0.6219    1.9765   -0.7844 C.3       1 ACP         0.3967
     22 N9          0.4237    1.4496   -2.1357 N.pl3     1 ACP        -0.6763
     23 C8          1.4026    0.9717   -2.9660 C.ar      1 ACP         0.5586
     24 N7          0.9183    0.5619   -4.1197 N.2       1 ACP        -0.5795
     25 C5         -0.4330    0.7845   -4.0331 C.ar      1 ACP        -0.2116
     26 C6         -1.4794    0.5615   -4.9225 C.ar      1 ACP         0.7185
     27 N6         -1.2378    0.0044   -6.1899 N.pl3     1 ACP        -0.9442
     28 N1         -2.7406    0.8885   -4.5512 N.ar      1 ACP        -0.8040
     29 C2         -2.9113    1.4216   -3.3172 C.ar      1 ACP         0.6560
     30 N3         -1.9824    1.6843   -2.3721 N.ar      1 ACP        -0.7058
     31 C4         -0.7613    1.3370   -2.8054 C.ar      1 ACP         0.5729
     32 HOG2        3.9319    0.9124   -3.4864 H         1 ACP         0.4440
     33 HOG3        4.4713    1.4947   -6.2478 H         1 ACP         0.4440
     34 H3B1        7.4882    3.3446   -4.7431 H         1 ACP         0.1084
     35 H3B2        6.0330    3.9733   -3.9756 H         1 ACP         0.1084
     36 H5'1        4.3030    1.6732   -0.8066 H         1 ACP         0.0281
     37 H5'2        4.5679    1.2741    0.9106 H         1 ACP         0.0281
     38 H4'         2.3751    2.7029    1.3156 H         1 ACP         0.1082
     39 H3'         2.4336   -0.1217   -0.0015 H         1 ACP         0.0650
     40 HO3'        1.7160   -0.6716    2.0397 H         1 ACP         0.4300
     41 H2'         0.0316    0.0155   -0.0339 H         1 ACP         0.0785
     42 HO2'       -1.1270    1.5823    1.1180 H         1 ACP         0.4275
     43 H1'        -0.1474    2.7798   -0.6651 H         1 ACP         0.1009
     44 H8          2.4442    0.9470   -2.6763 H         1 ACP         0.1067
     45 HN61       -0.2955   -0.1901   -6.4713 H         1 ACP         0.4213
     46 HN62       -1.9987   -0.1045   -6.8334 H         1 ACP         0.4213
     47 H2         -3.9335    1.6716   -3.0534 H         1 ACP         0.0365
@<TRIPOS>BOND
     1    1    2 2
     2    1    3 1
     3    1    4 1
     4    1    8 1
     5    3   32 1
     6    4   33 1
     7    5    6 2
     8    5    7 1
     9    5    8 1
    10    5   12 1
    11    8   34 1
    12    8   35 1
    13    9   10 2
    14    9   11 1
    15    9   12 1
    16    9   13 1
    17   13   14 1
    18   14   15 1
    19   14   36 1
    20   14   37 1
    21   15   16 1
    22   15   17 1
    23   15   38 1
    24   16   21 1
    25   17   18 1
    26   17   19 1
    27   17   39 1
    28   18   40 1
    29   19   20 1
    30   19   21 1
    31   19   41 1
    32   20   42 1
    33   21   22 1
    34   21   43 1
    35   22   23 ar
    36   22   31 ar
    37   23   24 ar
    38   23   44 1
    39   24   25 ar
    40   25   26 ar
    41   25   31 ar
    42   26   27 1
    43   26   28 ar
    44   27   45 1
    45   27   46 1
    46   28   29 ar
    47   29   30 ar
    48   29   47 1
    49   30   31 ar
@<TRIPOS>SUBSTRUCTURE
     1 ACP         1 GROUP 0 A     ****
@<TRIPOS>MOLECULE
[[5-(6-aminopurin-9-yl)-3,4-dihydroxy-tetrahydrofuran-2-yl]methoxy-oxido-phosphoryl]oxy-(phosphonomethyl)phosphinate
   47    49     1     0     0
SMALL
USER_CHARGES

@<TRIPOS>ATOM
      1 PG          2.4650    6.6848   -0.7656 P.3       1 ACP         1.6478
      2 O1G         3.3496    5.9807   -1.7500 O.2       1 ACP        -0.9103
      3 O2G         2.9437    8.1679   -0.3395 O.3       1 ACP        -0.7989
      4 O3G         2.2636    5.9301    0.6484 O.3       1 ACP        -0.7989
      5 PB         -0.3599    5.5573   -1.8042 P.3       1 ACP         1.4947
      6 O1B         0.2947    4.8085   -2.9419 O.co2     1 ACP        -0.8554
      7 O2B        -1.7545    6.1294   -1.9111 O.co2     1 ACP        -0.8554
      8 C3B         0.7709    6.9448   -1.3385 C.3       1 ACP        -0.6550
      9 PA         -0.7382    5.0055    1.0868 P.3       1 ACP         1.5921
     10 O1A        -2.2516    5.0177    1.0865 O.co2     1 ACP        -0.8561
     11 O2A         0.0419    6.1870    1.6208 O.co2     1 ACP        -0.8561
     12 O3A        -0.2227    4.6896   -0.4304 O.3       1 ACP        -0.8166
     13 O5'        -0.2059    3.6558    1.8419 O.3       1 ACP        -0.5737
     14 C5'        -0.8811    2.4285    1.6206 C.3       1 ACP         0.2197
     15 C4'        -0.1994    1.3333    2.4288 C.3       1 ACP         0.0944
     16 O4'        -1.1285    0.2356    2.5840 O.3       1 ACP        -0.4017
     17 C3'         1.0324    0.7610    1.7344 C.3       1 ACP         0.0859
     18 O3'         1.9175    0.2377    2.7247 O.3       1 ACP        -0.5941
     19 C2'         0.4468   -0.3802    0.9263 C.3       1 ACP         0.0924
     20 O2'         1.3993   -1.3703    0.5961 O.3       1 ACP        -0.5928
     21 C1'        -0.6159   -0.9100    1.8769 C.3       1 ACP         0.3967
     22 N9         -1.7127   -1.6108    1.2130 N.pl3     1 ACP        -0.6763
     23 C8         -2.5476   -1.0844    0.2632 C.ar      1 ACP         0.5586
     24 N7         -3.4391   -1.9591   -0.1536 N.2       1 ACP        -0.5795
     25 C5         -3.1701   -3.1016    0.5574 C.ar      1 ACP        -0.2116
     26 C6         -3.7593   -4.3620    0.5656 C.ar      1 ACP         0.7185
     27 N6         -4.8512   -4.6493   -0.2712 N.pl3     1 ACP        -0.9442
     28 N1         -3.2659   -5.3144    1.3932 N.ar      1 ACP        -0.8040
     29 C2         -2.2122   -4.9785    2.1759 C.ar      1 ACP         0.6560
     30 N3         -1.5595   -3.7985    2.2572 N.ar      1 ACP        -0.7058
     31 C4         -2.0986   -2.9054    1.4140 C.ar      1 ACP         0.5729
     32 HOG2        3.8193    8.2799    0.0879 H         1 ACP         0.4440
     33 HOG3        3.0498    5.7474    1.2057 H         1 ACP         0.4440
     34 H3B1        0.2415    7.5076   -0.5614 H         1 ACP         0.1084
     35 H3B2        0.8275    7.5934   -2.2201 H         1 ACP         0.1084
     36 H5'1       -1.9255    2.5383    1.9294 H         1 ACP         0.0281
     37 H5'2       -0.8472    2.1934    0.5521 H         1 ACP         0.0281
     38 H4'         0.0403    1.7078    3.4343 H         1 ACP         0.1082
     39 H3'         1.5906    1.4859    1.1353 H         1 ACP         0.0650
     40 HO3'        2.6839   -0.1150    2.2479 H         1 ACP         0.4300
     41 H2'        -0.0017    0.0018    0.0005 H         1 ACP         0.0785
     42 HO2'        2.0953   -0.9375    0.0709 H         1 ACP         0.4275
     43 H1'        -0.1998   -1.6319    2.6178 H         1 ACP         0.1009
     44 H8         -2.4576   -0.0639   -0.0831 H         1 ACP         0.1067
     45 HN61       -5.2371   -3.9234   -0.8448 H         1 ACP         0.4213
     46 HN62       -5.2909   -5.5485   -0.2160 H         1 ACP         0.4213
     47 H2         -1.8433   -5.7650    2.8259 H         1 ACP         0.0365
@<TRIPOS>BOND
     1    1    2 2
     2    1    3 1
     3    1    4 1
     4    1    8 1
     5    3   32 1
     6    4   33 1
     7    5    6 2
     8    5    7 1
     9    5    8 1
    10    5   12 1
    11    8   34 1
    12    8   35 1
    13    9   10 2
    14    9   11 1
    15    9   12 1
    16    9   13 1
    17   13   14 1
    18   14   15 1
    19   14   36 1
    20   14   37 1
    21   15   16 1
    22   15   17 1
    23   15   38 1
    24   16   21 1
    25   17   18 1
    26   17   19 1
    27   17   39 1
    28   18   40 1
    29   19   20 1
    30   19   21 1
    31   19   41 1
    32   20   42 1
    33   21   22 1
    34   21   43 1
    35   22   23 ar
    36   22   31 ar
    37   23   24 ar
    38   23   44 1
    39   24   25 ar
    40   25   26 ar
    41   25   31 ar
    42   26   27 1
    43   26   28 ar
    44   27   45 1
    45   27   46 1
    46   28   29 ar
    47   29   30 ar
    48   29   47 1
    49   30   31 ar
@<TRIPOS>SUBSTRUCTURE
     1 ACP         1 GROUP 0 A     ****
@<TRIPOS>MOLECULE
[[5-(6-aminopurin-9-yl)-3,4-dihydroxy-tetrahydrofuran-2-yl]methoxy-oxido-phosphoryl]oxy-(phosphonomethyl)phosphinate
   47    49     1     0     0
SMALL
USER_CHARGES

@<TRIPOS>ATOM
      1 PG         -1.2486    6.8199    5.5687 P.3       1 ACP         1.6478
      2 O1G         0.0400    6.7671    6.3328 O.2       1 ACP        -0.9103
      3 O2G        -2.4367    7.6616    6.2688 O.3       1 ACP        -0.7989
      4 O3G        -1.9295    5.3881    5.2589 O.3       1 ACP        -0.7989
      5 PB         -0.0154    6.9094    2.6020 P.3       1 ACP         1.4947
      6 O1B         1.3995    6.9428    3.1316 O.co2     1 ACP        -0.8554
      7 O2B        -0.4100    7.5874    1.3104 O.co2     1 ACP        -0.8554
      8 C3B        -1.1147    7.5747    3.9323 C.3       1 ACP        -0.6550
      9 PA         -2.0037    4.7529    2.1525 P.3       1 ACP         1.5921
     10 O1A        -2.1554    4.9422    0.6587 O.co2     1 ACP        -0.8561
     11 O2A        -3.0660    5.2571    3.1051 O.co2     1 ACP        -0.8561
     12 O3A        -0.5638    5.3737    2.6095 O.3       1 ACP        -0.8166
     13 O5'        -1.7337    3.1724    2.4754 O.3       1 ACP        -0.5737
     14 C5'        -0.8811    2.4285    1.6206 C.3       1 ACP         0.2197
     15 C4'        -0.1994    1.3333    2.4288 C.3       1 ACP         0.0944
     16 O4'        -1.1285    0.2356    2.5840 O.3       1 ACP        -0.4017
     17 C3'         1.0324    0.7610    1.7344 C.3       1 ACP         0.0859
     18 O3'         1.9175    0.2377    2.7247 O.3       1 ACP        -0.5941
     19 C2'         0.4468   -0.3802    0.9263 C.3       1 ACP         0.0924
     20 O2'         1.3993   -1.3703    0.5961 O.3       1 ACP        -0.5928
     21 C1'        -0.6159   -0.9100    1.8769 C.3       1 ACP         0.3967
     22 N9         -1.7127   -1.6108    1.2130 N.pl3     1 ACP        -0.6763
     23 C8         -1.7712   -2.9546    0.9544 C.ar      1 ACP         0.5586
     24 N7         -2.8883   -3.2948    0.3462 N.2       1 ACP        -0.5795
     25 C5         -3.5834   -2.1202    0.2043 C.ar      1 ACP        -0.2116
     26 C6         -4.8225   -1.8251   -0.3554 C.ar      1 ACP         0.7185
     27 N6         -5.6154   -2.8394   -0.9189 N.pl3     1 ACP        -0.9442
     28 N1         -5.2589   -0.5425   -0.3507 N.ar      1 ACP        -0.8040
     29 C2         -4.4510    0.3913    0.2069 C.ar      1 ACP         0.6560
     30 N3         -3.2368    0.2296    0.7767 N.ar      1 ACP        -0.7058
     31 C4         -2.8684   -1.0596    0.7376 C.ar      1 ACP         0.5729
     32 HOG2       -2.7588    7.3837    7.1526 H         1 ACP         0.4440
     33 HOG3       -2.1846    4.8109    6.0097 H         1 ACP         0.4440
     34 H3B1       -2.1200    7.6018    3.4970 H         1 ACP         0.1084
     35 H3B2       -0.8044    8.6148    4.0843 H         1 ACP         0.1084
     36 H5'1       -1.4802    1.9929    0.8148 H         1 ACP         0.0281
     37 H5'2       -0.1370    3.1043    1.1873 H         1 ACP         0.0281
     38 H4'         0.0403    1.7078    3.4343 H         1 ACP         0.1082
     39 H3'         1.5906    1.4859    1.1353 H         1 ACP         0.0650
     40 HO3'        2.1521    0.9800    3.3017 H         1 ACP         0.4300
     41 H2'        -0.0017    0.0018    0.0005 H         1 ACP         0.0785
     42 HO2'        2.0953   -0.9375    0.0709 H         1 ACP         0.4275
     43 H1'        -0.1998   -1.6319    2.6178 H         1 ACP         0.1009
     44 H8         -0.9745   -3.6312    1.2318 H         1 ACP         0.1067
     45 HN61       -5.2619   -3.7766   -0.9586 H         1 ACP         0.4213
     46 HN62       -6.4834   -2.5990   -1.3590 H         1 ACP         0.4213
     47 H2         -4.8317    1.4071    0.1930 H         1 ACP         0.0365
@<TRIPOS>BOND
     1    1    2 2
     2    1    3 1
     3    1    4 1
     4    1    8 1
     5    3   32 1
     6    4   33 1
     7    5    6 2
     8    5    7 1
     9    5    8 1
    10    5   12 1
    11    8   34 1
    12    8   35 1
    13    9   10 2
    14    9   11 1
    15    9   12 1
    16    9   13 1
    17   13   14 1
    18   14   15 1
    19   14   36 1
    20   14   37 1
    21   15   16 1
    22   15   17 1
    23   15   38 1
    24   16   21 1
    25   17   18 1
    26   17   19 1
    27   17   39 1
    28   18   40 1
    29   19   20 1
    30   19   21 1
    31   19   41 1
    32   20   42 1
    33   21   22 1
    34   21   43 1
    35   22   23 ar
    36   22   31 ar
    37   23   24 ar
    38   23   44 1
    39   24   25 ar
    40   25   26 ar
    41   25   31 ar
    42   26   27 1
    43   26   28 ar
    44   27   45 1
    45   27   46 1
    46   28   29 ar
    47   29   30 ar
    48   29   47 1
    49   30   31 ar
@<TRIPOS>SUBSTRUCTURE
     1 ACP         1 GROUP 0 A     ****
@<TRIPOS>MOLECULE
[[5-(6-aminopurin-9-yl)-3,4-dihydroxy-tetrahydrofuran-2-yl]methoxy-oxido-phosphoryl]oxy-(phosphonomethyl)phosphinate
   47    49     1     0     0
SMALL
USER_CHARGES

@<TRIPOS>ATOM
      1 PG          5.6389   -2.9413    3.1199 P.3       1 ACP         1.6478
      2 O1G         4.5289   -3.9141    2.8579 O.2       1 ACP        -0.9103
      3 O2G         6.6041   -3.3078    4.3626 O.3       1 ACP        -0.7989
      4 O3G         5.1731   -1.4269    3.4351 O.3       1 ACP        -0.7989
      5 PB          6.2743   -2.1438    0.0719 P.3       1 ACP         1.4947
      6 O1B         5.2527   -3.1244   -0.4556 O.co2     1 ACP        -0.8554
      7 O2B         7.5307   -1.7975   -0.6929 O.co2     1 ACP        -0.8554
      8 C3B         6.7933   -2.7391    1.7443 C.3       1 ACP        -0.6550
      9 PA          6.1202    0.6013    1.1884 P.3       1 ACP         1.5921
     10 O1A         6.9854    1.2789    0.1478 O.co2     1 ACP        -0.8561
     11 O2A         6.6696    0.2902    2.5636 O.co2     1 ACP        -0.8561
     12 O3A         5.5227   -0.7769    0.5472 O.3       1 ACP        -0.8166
     13 O5'         4.7294    1.4425    1.3700 O.3       1 ACP        -0.5737
     14 C5'         4.0922    1.9801    0.2227 C.3       1 ACP         0.2197
     15 C4'         2.5944    2.0310    0.4653 C.3       1 ACP         0.0944
     16 O4'         1.9327    2.5740   -0.6889 O.3       1 ACP        -0.4017
     17 C3'         1.9685    0.6634    0.6767 C.3       1 ACP         0.0859
     18 O3'         2.1425    0.1975    1.9977 O.3       1 ACP        -0.5941
     19 C2'         0.5176    0.9128    0.3099 C.3       1 ACP         0.0924
     20 O2'        -0.2103    1.4454    1.4152 O.3       1 ACP        -0.5928
     21 C1'         0.6219    1.9765   -0.7844 C.3       1 ACP         0.3967
     22 N9          0.4237    1.4496   -2.1357 N.pl3     1 ACP        -0.6763
     23 C8          1.4026    0.9717   -2.9660 C.ar      1 ACP         0.5586
     24 N7          0.9183    0.5619   -4.1197 N.2       1 ACP        -0.5795
     25 C5         -0.4330    0.7845   -4.0331 C.ar      1 ACP        -0.2116
     26 C6         -1.4794    0.5615   -4.9225 C.ar      1 ACP         0.7185
     27 N6         -1.2378    0.0044   -6.1899 N.pl3     1 ACP        -0.9442
     28 N1         -2.7406    0.8885   -4.5512 N.ar      1 ACP        -0.8040
     29 C2         -2.9113    1.4216   -3.3172 C.ar      1 ACP         0.6560
     30 N3         -1.9824    1.6843   -2.3721 N.ar      1 ACP        -0.7058
     31 C4         -0.7613    1.3370   -2.8054 C.ar      1 ACP         0.5729
     32 HOG2        6.2146   -3.3874    5.2593 H         1 ACP         0.4440
     33 HOG3        4.5950   -1.2590    4.2094 H         1 ACP         0.4440
     34 H3B1        7.5799   -2.0496    2.0710 H         1 ACP         0.1084
     35 H3B2        7.2695   -3.7125    1.5808 H         1 ACP         0.1084
     36 H5'1        4.4845    2.9853    0.0383 H         1 ACP         0.0281
     37 H5'2        4.3193    1.3444   -0.6389 H         1 ACP         0.0281
     38 H4'         2.3751    2.7029    1.3156 H         1 ACP         0.1082
     39 H3'         2.4336   -0.1217   -0.0015 H         1 ACP         0.0650
     40 HO3'        3.0987    0.1465    2.1461 H         1 ACP         0.4300
     41 H2'         0.0316    0.0155   -0.0339 H         1 ACP         0.0785
     42 HO2'       -0.1608    0.7921    2.1351 H         1 ACP         0.4275
     43 H1'        -0.1474    2.7798   -0.6651 H         1 ACP         0.1009
     44 H8          2.4442    0.9470   -2.6763 H         1 ACP         0.1067
     45 HN61       -0.2955   -0.1901   -6.4713 H         1 ACP         0.4213
     46 HN62       -1.9987   -0.1045   -6.8334 H         1 ACP         0.4213
     47 H2         -3.9335    1.6716   -3.0534 H         1 ACP         0.0365
@<TRIPOS>BOND
     1    1    2 2
     2    1    3 1
     3    1    4 1
     4    1    8 1
     5    3   32 1
     6    4   33 1
     7    5    6 2
     8    5    7 1
     9    5    8 1
    10    5   12 1
    11    8   34 1
    12    8   35 1
    13    9   10 2
    14    9   11 1
    15    9   12 1
    16    9   13 1
    17   13   14 1
    18   14   15 1
    19   14   36 1
    20   14   37 1
    21   15   16 1
    22   15   17 1
    23   15   38 1
    24   16   21 1
    25   17   18 1
    26   17   19 1
    27   17   39 1
    28   18   40 1
    29   19   20 1
    30   19   21 1
    31   19   41 1
    32   20   42 1
    33   21   22 1
    34   21   43 1
    35   22   23 ar
    36   22   31 ar
    37   23   24 ar
    38   23   44 1
    39   24   25 ar
    40   25   26 ar
    41   25   31 ar
    42   26   27 1
    43   26   28 ar
    44   27   45 1
    45   27   46 1
    46   28   29 ar
    47   29   30 ar
    48   29   47 1
    49   30   31 ar
@<TRIPOS>SUBSTRUCTURE
     1 ACP         1 GROUP 0 A     ****
@<TRIPOS>MOLECULE
[[5-(6-aminopurin-9-yl)-3,4-dihydroxy-tetrahydrofuran-2-yl]methoxy-oxido-phosphoryl]oxy-(phosphonomethyl)phosphinate
   47    49     1     0     0
SMALL
USER_CHARGES

@<TRIPOS>ATOM
      1 PG          2.4650    6.6848   -0.7656 P.3       1 ACP         1.6478
      2 O1G         3.3496    5.9807   -1.7500 O.2       1 ACP        -0.9103
      3 O2G         2.9437    8.1679   -0.3395 O.3       1 ACP        -0.7989
      4 O3G         2.2636    5.9301    0.6484 O.3       1 ACP        -0.7989
      5 PB         -0.3599    5.5573   -1.8042 P.3       1 ACP         1.4947
      6 O1B         0.2947    4.8085   -2.9419 O.co2     1 ACP        -0.8554
      7 O2B        -1.7545    6.1294   -1.9111 O.co2     1 ACP        -0.8554
      8 C3B         0.7709    6.9448   -1.3385 C.3       1 ACP        -0.6550
      9 PA         -0.7382    5.0055    1.0868 P.3       1 ACP         1.5921
     10 O1A        -2.2516    5.0177    1.0865 O.co2     1 ACP        -0.8561
     11 O2A         0.0419    6.1870    1.6208 O.co2     1 ACP        -0.8561
     12 O3A        -0.2227    4.6896   -0.4304 O.3       1 ACP        -0.8166
     13 O5'        -0.2059    3.6558    1.8419 O.3       1 ACP        -0.5737
     14 C5'        -0.8811    2.4285    1.6206 C.3       1 ACP         0.2197
     15 C4'        -0.1994    1.3333    2.4288 C.3       1 ACP         0.0944
     16 O4'        -1.1285    0.2356    2.5840 O.3       1 ACP        -0.4017
     17 C3'         1.0324    0.7610    1.7344 C.3       1 ACP         0.0859
     18 O3'         1.9175    0.2377    2.7247 O.3       1 ACP        -0.5941
     19 C2'         0.4468   -0.3802    0.9263 C.3       1 ACP         0.0924
     20 O2'         1.3993   -1.3703    0.5961 O.3       1 ACP        -0.5928
     21 C1'        -0.6159   -0.9100    1.8769 C.3       1 ACP         0.3967
     22 N9         -1.7127   -1.6108    1.2130 N.pl3     1 ACP        -0.6763
     23 C8         -1.7712   -2.9546    0.9544 C.ar      1 ACP         0.5586
     24 N7         -2.8883   -3.2948    0.3462 N.2       1 ACP        -0.5795
     25 C5         -3.5834   -2.1202    0.2043 C.ar      1 ACP        -0.2116
     26 C6         -4.8225   -1.8251   -0.3554 C.ar      1 ACP         0.7185
     27 N6         -5.6154   -2.8394   -0.9189 N.pl3     1 ACP        -0.9442
     28 N1         -5.2589   -0.5425   -0.3507 N.ar      1 ACP        -0.8040
     29 C2         -4.4510    0.3913    0.2069 C.ar      1 ACP         0.6560
     30 N3         -3.2368    0.2296    0.7767 N.ar      1 ACP        -0.7058
     31 C4         -2.8684   -1.0596    0.7376 C.ar      1 ACP         0.5729
     32 HOG2        3.8193    8.2799    0.0879 H         1 ACP         0.4440
     33 HOG3        3.0498    5.7474    1.2057 H         1 ACP         0.4440
     34 H3B1        0.2415    7.5076   -0.5614 H         1 ACP         0.1084
     35 H3B2        0.8275    7.5934   -2.2201 H         1 ACP         0.1084
     36 H5'1       -1.9255    2.5383    1.9294 H         1 ACP         0.0281
     37 H5'2       -0.8472    2.1934    0.5521 H         1 ACP         0.0281
     38 H4'         0.0403    1.7078    3.4343 H         1 ACP         0.1082
     39 H3'         1.5906    1.4859    1.1353 H         1 ACP         0.0650
     40 HO3'        2.1521    0.9800    3.3017 H         1 ACP         0.4300
     41 H2'        -0.0017    0.0018    0.0005 H         1 ACP         0.0785
     42 HO2'        1.7495   -1.7243    1.4324 H         1 ACP         0.4275
     43 H1'        -0.1998   -1.6319    2.6178 H         1 ACP         0.1009
     44 H8         -0.9745   -3.6312    1.2318 H         1 ACP         0.1067
     45 HN61       -5.2619   -3.7766   -0.9586 H         1 ACP         0.4213
     46 HN62       -6.4834   -2.5990   -1.3590 H         1 ACP         0.4213
     47 H2         -4.8317    1.4071    0.1930 H         1 ACP         0.0365
@<TRIPOS>BOND
     1    1    2 2
     2    1    3 1
     3    1    4 1
     4    1    8 1
     5    3   32 1
     6    4   33 1
     7    5    6 2
     8    5    7 1
     9    5    8 1
    10    5   12 1
    11    8   34 1
    12    8   35 1
    13    9   10 2
    14    9   11 1
    15    9   12 1
    16    9   13 1
    17   13   14 1
    18   14   15 1
    19   14   36 1
    20   14   37 1
    21   15   16 1
    22   15   17 1
    23   15   38 1
    24   16   21 1
    25   17   18 1
    26   17   19 1
    27   17   39 1
    28   18   40 1
    29   19   20 1
    30   19   21 1
    31   19   41 1
    32   20   42 1
    33   21   22 1
    34   21   43 1
    35   22   23 ar
    36   22   31 ar
    37   23   24 ar
    38   23   44 1
    39   24   25 ar
    40   25   26 ar
    41   25   31 ar
    42   26   27 1
    43   26   28 ar
    44   27   45 1
    45   27   46 1
    46   28   29 ar
    47   29   30 ar
    48   29   47 1
    49   30   31 ar
@<TRIPOS>SUBSTRUCTURE
     1 ACP         1 GROUP 0 A     ****
@<TRIPOS>MOLECULE
[[5-(6-aminopurin-9-yl)-3,4-dihydroxy-tetrahydrofuran-2-yl]methoxy-oxido-phosphoryl]oxy-(phosphonomethyl)phosphinate
   47    49     1     0     0
SMALL
USER_CHARGES

@<TRIPOS>ATOM
      1 PG          0.4810   -1.3551   -4.9308 P.3       1 ACP         1.6478
      2 O1G         1.8315   -1.6021   -5.5328 O.2       1 ACP        -0.9103
      3 O2G         0.4116   -0.1558   -3.8505 O.3       1 ACP        -0.7989
      4 O3G        -0.1683   -2.6097   -4.1472 O.3       1 ACP        -0.7989
      5 PB         -2.5485   -0.5542   -5.6455 P.3       1 ACP         1.4947
      6 O1B        -3.0923   -1.7980   -4.9816 O.co2     1 ACP        -0.8554
      7 O2B        -3.2224    0.0849   -6.8376 O.co2     1 ACP        -0.8554
      8 C3B        -0.7985   -0.9100   -6.1268 C.3       1 ACP        -0.6550
      9 PA         -1.6496    2.0940   -4.6528 P.3       1 ACP         1.5921
     10 O1A        -2.6557    2.9329   -5.4107 O.co2     1 ACP        -0.8561
     11 O2A        -0.2125    2.0061   -5.1188 O.co2     1 ACP        -0.8561
     12 O3A        -2.2405    0.5778   -4.5128 O.3       1 ACP        -0.8166
     13 O5'        -1.6520    2.5338   -3.0775 O.3       1 ACP        -0.5737
     14 C5'        -0.7794    1.8744   -2.1748 C.3       1 ACP         0.2197
     15 C4'        -0.9699    2.4597   -0.7819 C.3       1 ACP         0.0944
     16 O4'        -2.1475    1.8640   -0.2014 O.3       1 ACP        -0.4017
     17 C3'         0.1697    2.1347    0.1695 C.3       1 ACP         0.0859
     18 O3'         0.1809    3.0982    1.2223 O.3       1 ACP        -0.5941
     19 C2'        -0.2543    0.7880    0.7187 C.3       1 ACP         0.0924
     20 O2'         0.3606    0.4944    1.9582 O.3       1 ACP        -0.5928
     21 C1'        -1.7682    0.9516    0.8548 C.3       1 ACP         0.3967
     22 N9         -2.5926   -0.2553    0.7436 N.pl3     1 ACP        -0.6763
     23 C8         -3.5599   -0.4866   -0.1983 C.ar      1 ACP         0.5586
     24 N7         -4.1294   -1.6639   -0.0461 N.2       1 ACP        -0.5795
     25 C5         -3.5041   -2.2191    1.0420 C.ar      1 ACP        -0.2116
     26 C6         -3.6604   -3.4390    1.6925 C.ar      1 ACP         0.7185
     27 N6         -4.6108   -4.3735    1.2468 N.pl3     1 ACP        -0.9442
     28 N1         -2.8820   -3.7179    2.7657 N.ar      1 ACP        -0.8040
     29 C2         -1.9837   -2.7784    3.1481 C.ar      1 ACP         0.6560
     30 N3         -1.7408   -1.5668    2.6022 N.ar      1 ACP        -0.7058
     31 C4         -2.5438   -1.3578    1.5483 C.ar      1 ACP         0.5729
     32 HOG2        0.9651   -0.2115   -3.0427 H         1 ACP         0.4440
     33 HOG3        0.3090   -2.9885   -3.3786 H         1 ACP         0.4440
     34 H3B1       -0.4540   -0.0189   -6.6637 H         1 ACP         0.1084
     35 H3B2       -0.8492   -1.7242   -6.8587 H         1 ACP         0.1084
     36 H5'1       -1.0116    0.8048   -2.1755 H         1 ACP         0.0281
     37 H5'2        0.2522    2.0163   -2.5121 H         1 ACP         0.0281
     38 H4'        -1.1469    3.5409   -0.8522 H         1 ACP         0.1082
     39 H3'         1.1601    2.1310   -0.2934 H         1 ACP         0.0650
     40 HO3'        0.9173    2.8584    1.8048 H         1 ACP         0.4300
     41 H2'        -0.0024   -0.0091    0.0062 H         1 ACP         0.0785
     42 HO2'        0.0384   -0.3797    2.2403 H         1 ACP         0.4275
     43 H1'        -2.0584    1.4255    1.8301 H         1 ACP         0.1009
     44 H8         -3.8030    0.2355   -0.9657 H         1 ACP         0.1067
     45 HN61       -5.2130   -4.1372    0.4810 H         1 ACP         0.4213
     46 HN62       -4.7404   -5.2263    1.7576 H         1 ACP         0.4213
     47 H2         -1.3778   -3.0348    4.0107 H         1 ACP         0.0365
@<TRIPOS>BOND
     1    1    2 2
     2    1    3 1
     3    1    4 1
     4    1    8 1
     5    3   32 1
     6    4   33 1
     7    5    6 2
     8    5    7 1
     9    5    8 1
    10    5   12 1
    11    8   34 1
    12    8   35 1
    13    9   10 2
    14    9   11 1
    15    9   12 1
    16    9   13 1
    17   13   14 1
    18   14   15 1
    19   14   36 1
    20   14   37 1
    21   15   16 1
    22   15   17 1
    23   15   38 1
    24   16   21 1
    25   17   18 1
    26   17   19 1
    27   17   39 1
    28   18   40 1
    29   19   20 1
    30   19   21 1
    31   19   41 1
    32   20   42 1
    33   21   22 1
    34   21   43 1
    35   22   23 ar
    36   22   31 ar
    37   23   24 ar
    38   23   44 1
    39   24   25 ar
    40   25   26 ar
    41   25   31 ar
    42   26   27 1
    43   26   28 ar
    44   27   45 1
    45   27   46 1
    46   28   29 ar
    47   29   30 ar
    48   29   47 1
    49   30   31 ar
@<TRIPOS>SUBSTRUCTURE
     1 ACP         1 GROUP 0 A     ****
@<TRIPOS>MOLECULE
[[5-(6-aminopurin-9-yl)-3,4-dihydroxy-tetrahydrofuran-2-yl]methoxy-oxido-phosphoryl]oxy-(phosphonomethyl)phosphinate
   47    49     1     0     0
SMALL
USER_CHARGES

@<TRIPOS>ATOM
      1 PG         -1.5037    2.9429   -7.6885 P.3       1 ACP         1.6478
      2 O1G        -0.1543    3.4691   -8.0753 O.2       1 ACP        -0.9103
      3 O2G        -2.6983    3.2661   -8.7271 O.3       1 ACP        -0.7989
      4 O3G        -2.0757    3.4751   -6.2746 O.3       1 ACP        -0.7989
      5 PB         -0.5453    0.2049   -6.3048 P.3       1 ACP         1.4947
      6 O1B         0.9012    0.4716   -6.6513 O.co2     1 ACP        -0.8554
      7 O2B        -1.1104   -1.1941   -6.2204 O.co2     1 ACP        -0.8554
      8 C3B        -1.5813    1.1459   -7.5139 C.3       1 ACP        -0.6550
      9 PA         -2.3605    1.1374   -4.1504 P.3       1 ACP         1.5921
     10 O1A        -2.6576   -0.2202   -3.5510 O.co2     1 ACP        -0.8561
     11 O2A        -3.3777    1.8305   -5.0306 O.co2     1 ACP        -0.8561
     12 O3A        -0.9490    1.0452   -4.9668 O.3       1 ACP        -0.8166
     13 O5'        -1.9208    2.1717   -2.9622 O.3       1 ACP        -0.5737
     14 C5'        -0.7794    1.8744   -2.1748 C.3       1 ACP         0.2197
     15 C4'        -0.9699    2.4597   -0.7819 C.3       1 ACP         0.0944
     16 O4'        -2.1475    1.8640   -0.2014 O.3       1 ACP        -0.4017
     17 C3'         0.1697    2.1347    0.1695 C.3       1 ACP         0.0859
     18 O3'         0.1809    3.0982    1.2223 O.3       1 ACP        -0.5941
     19 C2'        -0.2543    0.7880    0.7187 C.3       1 ACP         0.0924
     20 O2'         0.3606    0.4944    1.9582 O.3       1 ACP        -0.5928
     21 C1'        -1.7682    0.9516    0.8548 C.3       1 ACP         0.3967
     22 N9         -2.5926   -0.2553    0.7436 N.pl3     1 ACP        -0.6763
     23 C8         -3.5599   -0.4866   -0.1983 C.ar      1 ACP         0.5586
     24 N7         -4.1294   -1.6639   -0.0461 N.2       1 ACP        -0.5795
     25 C5         -3.5041   -2.2191    1.0420 C.ar      1 ACP        -0.2116
     26 C6         -3.6604   -3.4390    1.6925 C.ar      1 ACP         0.7185
     27 N6         -4.6108   -4.3735    1.2468 N.pl3     1 ACP        -0.9442
     28 N1         -2.8820   -3.7179    2.7657 N.ar      1 ACP        -0.8040
     29 C2         -1.9837   -2.7784    3.1481 C.ar      1 ACP         0.6560
     30 N3         -1.7408   -1.5668    2.6022 N.ar      1 ACP        -0.7058
     31 C4         -2.5438   -1.3578    1.5483 C.ar      1 ACP         0.5729
     32 HOG2       -2.9161    4.2018   -8.9245 H         1 ACP         0.4440
     33 HOG3       -2.2112    4.4384   -6.1491 H         1 ACP         0.4440
     34 H3B1       -2.6188    0.8804   -7.2816 H         1 ACP         0.1084
     35 H3B2       -1.3549    0.7190   -8.4976 H         1 ACP         0.1084
     36 H5'1       -0.6602    0.7877   -2.1203 H         1 ACP         0.0281
     37 H5'2        0.1041    2.3072   -2.6545 H         1 ACP         0.0281
     38 H4'        -1.1469    3.5409   -0.8522 H         1 ACP         0.1082
     39 H3'         1.1601    2.1310   -0.2934 H         1 ACP         0.0650
     40 HO3'        0.9173    2.8584    1.8048 H         1 ACP         0.4300
     41 H2'        -0.0024   -0.0091    0.0062 H         1 ACP         0.0785
     42 HO2'        1.3225    0.4909    1.8095 H         1 ACP         0.4275
     43 H1'        -2.0584    1.4255    1.8301 H         1 ACP         0.1009
     44 H8         -3.8030    0.2355   -0.9657 H         1 ACP         0.1067
     45 HN61       -5.2130   -4.1372    0.4810 H         1 ACP         0.4213
     46 HN62       -4.7404   -5.2263    1.7576 H         1 ACP         0.4213
     47 H2         -1.3778   -3.0348    4.0107 H         1 ACP         0.0365
@<TRIPOS>BOND
     1    1    2 2
     2    1    3 1
     3    1    4 1
     4    1    8 1
     5    3   32 1
     6    4   33 1
     7    5    6 2
     8    5    7 1
     9    5    8 1
    10    5   12 1
    11    8   34 1
    12    8   35 1
    13    9   10 2
    14    9   11 1
    15    9   12 1
    16    9   13 1
    17   13   14 1
    18   14   15 1
    19   14   36 1
    20   14   37 1
    21   15   16 1
    22   15   17 1
    23   15   38 1
    24   16   21 1
    25   17   18 1
    26   17   19 1
    27   17   39 1
    28   18   40 1
    29   19   20 1
    30   19   21 1
    31   19   41 1
    32   20   42 1
    33   21   22 1
    34   21   43 1
    35   22   23 ar
    36   22   31 ar
    37   23   24 ar
    38   23   44 1
    39   24   25 ar
    40   25   26 ar
    41   25   31 ar
    42   26   27 1
    43   26   28 ar
    44   27   45 1
    45   27   46 1
    46   28   29 ar
    47   29   30 ar
    48   29   47 1
    49   30   31 ar
@<TRIPOS>SUBSTRUCTURE
     1 ACP         1 GROUP 0 A     ****
@<TRIPOS>MOLECULE
[[5-(6-aminopurin-9-yl)-3,4-dihydroxy-tetrahydrofuran-2-yl]methoxy-oxido-phosphoryl]oxy-(phosphonomethyl)phosphinate
   47    49     1     0     0
SMALL
USER_CHARGES

@<TRIPOS>ATOM
      1 PG          5.1165    1.6655   -2.6230 P.3       1 ACP         1.6478
      2 O1G         5.5970    1.2477   -1.2658 O.2       1 ACP        -0.9103
      3 O2G         6.2366    2.3235   -3.5836 O.3       1 ACP        -0.7989
      4 O3G         3.9231    2.7543   -2.6307 O.3       1 ACP        -0.7989
      5 PB          2.9991   -0.7038   -3.1057 P.3       1 ACP         1.4947
      6 O1B         3.3660   -1.3720   -1.8009 O.co2     1 ACP        -0.8554
      7 O2B         2.5441   -1.4883   -4.3145 O.co2     1 ACP        -0.8554
      8 C3B         4.4506    0.3177   -3.6258 C.3       1 ACP        -0.6550
      9 PA          1.2406    1.5710   -3.8401 P.3       1 ACP         1.5921
     10 O1A         0.2953    0.7995   -4.7355 O.co2     1 ACP        -0.8561
     11 O2A         2.3069    2.4657   -4.4340 O.co2     1 ACP        -0.8561
     12 O3A         1.9597    0.5194   -2.8180 O.3       1 ACP        -0.8166
     13 O5'         0.3757    2.4482   -2.7643 O.3       1 ACP        -0.5737
     14 C5'        -0.7794    1.8744   -2.1748 C.3       1 ACP         0.2197
     15 C4'        -0.9699    2.4597   -0.7819 C.3       1 ACP         0.0944
     16 O4'        -2.1475    1.8640   -0.2014 O.3       1 ACP        -0.4017
     17 C3'         0.1697    2.1347    0.1695 C.3       1 ACP         0.0859
     18 O3'         0.1809    3.0982    1.2223 O.3       1 ACP        -0.5941
     19 C2'        -0.2543    0.7880    0.7187 C.3       1 ACP         0.0924
     20 O2'         0.3606    0.4944    1.9582 O.3       1 ACP        -0.5928
     21 C1'        -1.7682    0.9516    0.8548 C.3       1 ACP         0.3967
     22 N9         -2.5926   -0.2553    0.7436 N.pl3     1 ACP        -0.6763
     23 C8         -3.5599   -0.4866   -0.1983 C.ar      1 ACP         0.5586
     24 N7         -4.1294   -1.6639   -0.0461 N.2       1 ACP        -0.5795
     25 C5         -3.5041   -2.2191    1.0420 C.ar      1 ACP        -0.2116
     26 C6         -3.6604   -3.4390    1.6925 C.ar      1 ACP         0.7185
     27 N6         -4.6108   -4.3735    1.2468 N.pl3     1 ACP        -0.9442
     28 N1         -2.8820   -3.7179    2.7657 N.ar      1 ACP        -0.8040
     29 C2         -1.9837   -2.7784    3.1481 C.ar      1 ACP         0.6560
     30 N3         -1.7408   -1.5668    2.6022 N.ar      1 ACP        -0.7058
     31 C4         -2.5438   -1.3578    1.5483 C.ar      1 ACP         0.5729
     32 HOG2        6.6927    3.1410   -3.2908 H         1 ACP         0.4440
     33 HOG3        4.0746    3.6283   -2.2123 H         1 ACP         0.4440
     34 H3B1        4.1824    0.7338   -4.6034 H         1 ACP         0.1084
     35 H3B2        5.2699   -0.3906   -3.7940 H         1 ACP         0.1084
     36 H5'1       -1.6462    2.0968   -2.8052 H         1 ACP         0.0281
     37 H5'2       -0.6469    0.7893   -2.1194 H         1 ACP         0.0281
     38 H4'        -1.1469    3.5409   -0.8522 H         1 ACP         0.1082
     39 H3'         1.1601    2.1310   -0.2934 H         1 ACP         0.0650
     40 HO3'        0.3098    3.9616    0.8017 H         1 ACP         0.4300
     41 H2'        -0.0024   -0.0091    0.0062 H         1 ACP         0.0785
     42 HO2'        0.0384   -0.3797    2.2403 H         1 ACP         0.4275
     43 H1'        -2.0584    1.4255    1.8301 H         1 ACP         0.1009
     44 H8         -3.8030    0.2355   -0.9657 H         1 ACP         0.1067
     45 HN61       -5.2130   -4.1372    0.4810 H         1 ACP         0.4213
     46 HN62       -4.7404   -5.2263    1.7576 H         1 ACP         0.4213
     47 H2         -1.3778   -3.0348    4.0107 H         1 ACP         0.0365
@<TRIPOS>BOND
     1    1    2 2
     2    1    3 1
     3    1    4 1
     4    1    8 1
     5    3   32 1
     6    4   33 1
     7    5    6 2
     8    5    7 1
     9    5    8 1
    10    5   12 1
    11    8   34 1
    12    8   35 1
    13    9   10 2
    14    9   11 1
    15    9   12 1
    16    9   13 1
    17   13   14 1
    18   14   15 1
    19   14   36 1
    20   14   37 1
    21   15   16 1
    22   15   17 1
    23   15   38 1
    24   16   21 1
    25   17   18 1
    26   17   19 1
    27   17   39 1
    28   18   40 1
    29   19   20 1
    30   19   21 1
    31   19   41 1
    32   20   42 1
    33   21   22 1
    34   21   43 1
    35   22   23 ar
    36   22   31 ar
    37   23   24 ar
    38   23   44 1
    39   24   25 ar
    40   25   26 ar
    41   25   31 ar
    42   26   27 1
    43   26   28 ar
    44   27   45 1
    45   27   46 1
    46   28   29 ar
    47   29   30 ar
    48   29   47 1
    49   30   31 ar
@<TRIPOS>SUBSTRUCTURE
     1 ACP         1 GROUP 0 A     ****
@<TRIPOS>MOLECULE
[[5-(6-aminopurin-9-yl)-3,4-dihydroxy-tetrahydrofuran-2-yl]methoxy-oxido-phosphoryl]oxy-(phosphonomethyl)phosphinate
   47    49     1     0     0
SMALL
USER_CHARGES

@<TRIPOS>ATOM
      1 PG          3.1165   -0.1073   -5.7751 P.3       1 ACP         1.6478
      2 O1G         3.0475   -1.5821   -5.5150 O.2       1 ACP        -0.9103
      3 O2G         4.4424    0.4000   -6.5463 O.3       1 ACP        -0.7989
      4 O3G         3.0590    0.8313   -4.4615 O.3       1 ACP        -0.7989
      5 PB         -0.0097    0.4065   -6.3162 P.3       1 ACP         1.4947
      6 O1B        -0.3322   -1.0631   -6.1751 O.co2     1 ACP        -0.8554
      7 O2B        -0.7902    1.3197   -7.2329 O.co2     1 ACP        -0.8554
      8 C3B         1.7715    0.5332   -6.7979 C.3       1 ACP        -0.6550
      9 PA          0.4400    2.6183   -4.3897 P.3       1 ACP         1.5921
     10 O1A        -0.6984    3.5042   -4.8479 O.co2     1 ACP        -0.8561
     11 O2A         1.8678    2.9357   -4.7776 O.co2     1 ACP        -0.8561
     12 O3A         0.1128    1.0820   -4.8371 O.3       1 ACP        -0.8166
     13 O5'         0.3757    2.4482   -2.7643 O.3       1 ACP        -0.5737
     14 C5'        -0.7794    1.8744   -2.1748 C.3       1 ACP         0.2197
     15 C4'        -0.9699    2.4597   -0.7819 C.3       1 ACP         0.0944
     16 O4'        -2.1475    1.8640   -0.2014 O.3       1 ACP        -0.4017
     17 C3'         0.1697    2.1347    0.1695 C.3       1 ACP         0.0859
     18 O3'         0.1809    3.0982    1.2223 O.3       1 ACP        -0.5941
     19 C2'        -0.2543    0.7880    0.7187 C.3       1 ACP         0.0924
     20 O2'         0.3606    0.4944    1.9582 O.3       1 ACP        -0.5928
     21 C1'        -1.7682    0.9516    0.8548 C.3       1 ACP         0.3967
     22 N9         -2.5926   -0.2553    0.7436 N.pl3     1 ACP        -0.6763
     23 C8         -2.6465   -1.0979   -0.3350 C.ar      1 ACP         0.5586
     24 N7         -3.4765   -2.1012   -0.1400 N.2       1 ACP        -0.5795
     25 C5         -3.9826   -1.8994    1.1194 C.ar      1 ACP        -0.2116
     26 C6         -4.8981   -2.6116    1.8877 C.ar      1 ACP         0.7185
     27 N6         -5.4931   -3.7842    1.3916 N.pl3     1 ACP        -0.9442
     28 N1         -5.2111   -2.1602    3.1262 N.ar      1 ACP        -0.8040
     29 C2         -4.6051   -1.0248    3.5500 C.ar      1 ACP         0.6560
     30 N3         -3.7075   -0.2510    2.9016 N.ar      1 ACP        -0.7058
     31 C4         -3.4448   -0.7551    1.6866 C.ar      1 ACP         0.5729
     32 HOG2        5.3195    0.2449   -6.1356 H         1 ACP         0.4440
     33 HOG3        3.7539    0.7328   -3.7764 H         1 ACP         0.4440
     34 H3B1        1.9576    1.6011   -6.9586 H         1 ACP         0.1084
     35 H3B2        1.8525    0.0443   -7.7755 H         1 ACP         0.1084
     36 H5'1       -1.6462    2.0968   -2.8052 H         1 ACP         0.0281
     37 H5'2       -0.6469    0.7893   -2.1194 H         1 ACP         0.0281
     38 H4'        -1.1469    3.5409   -0.8522 H         1 ACP         0.1082
     39 H3'         1.1601    2.1310   -0.2934 H         1 ACP         0.0650
     40 HO3'        0.3098    3.9616    0.8017 H         1 ACP         0.4300
     41 H2'        -0.0024   -0.0091    0.0062 H         1 ACP         0.0785
     42 HO2'        0.0384   -0.3797    2.2403 H         1 ACP         0.4275
     43 H1'        -2.0584    1.4255    1.8301 H         1 ACP         0.1009
     44 H8         -2.0609   -0.9301   -1.2286 H         1 ACP         0.1067
     45 HN61       -6.1141   -4.3082    1.9786 H         1 ACP         0.4213
     46 HN62       -5.2181   -4.1341    0.4934 H         1 ACP         0.4213
     47 H2         -4.8793   -0.6924    4.5457 H         1 ACP         0.0365
@<TRIPOS>BOND
     1    1    2 2
     2    1    3 1
     3    1    4 1
     4    1    8 1
     5    3   32 1
     6    4   33 1
     7    5    6 2
     8    5    7 1
     9    5    8 1
    10    5   12 1
    11    8   34 1
    12    8   35 1
    13    9   10 2
    14    9   11 1
    15    9   12 1
    16    9   13 1
    17   13   14 1
    18   14   15 1
    19   14   36 1
    20   14   37 1
    21   15   16 1
    22   15   17 1
    23   15   38 1
    24   16   21 1
    25   17   18 1
    26   17   19 1
    27   17   39 1
    28   18   40 1
    29   19   20 1
    30   19   21 1
    31   19   41 1
    32   20   42 1
    33   21   22 1
    34   21   43 1
    35   22   23 ar
    36   22   31 ar
    37   23   24 ar
    38   23   44 1
    39   24   25 ar
    40   25   26 ar
    41   25   31 ar
    42   26   27 1
    43   26   28 ar
    44   27   45 1
    45   27   46 1
    46   28   29 ar
    47   29   30 ar
    48   29   47 1
    49   30   31 ar
@<TRIPOS>SUBSTRUCTURE
     1 ACP         1 GROUP 0 A     ****
@<TRIPOS>MOLECULE
[[5-(6-aminopurin-9-yl)-3,4-dihydroxy-tetrahydrofuran-2-yl]methoxy-oxido-phosphoryl]oxy-(phosphonomethyl)phosphinate
   47    49     1     0     0
SMALL
USER_CHARGES

@<TRIPOS>ATOM
      1 PG         -2.0214   -0.7271   -5.5369 P.3       1 ACP         1.6478
      2 O1G        -1.6973   -2.1710   -5.7763 O.2       1 ACP        -0.9103
      3 O2G        -1.5127   -0.1264   -4.1260 O.3       1 ACP        -0.7989
      4 O3G        -3.5935   -0.3564   -5.5624 O.3       1 ACP        -0.7989
      5 PB         -1.5588    2.2394   -6.6840 P.3       1 ACP         1.4947
      6 O1B        -3.0453    2.4941   -6.7786 O.co2     1 ACP        -0.8554
      7 O2B        -0.5704    2.8628   -7.6421 O.co2     1 ACP        -0.8554
      8 C3B        -1.3110    0.4077   -6.7506 C.3       1 ACP        -0.6550
      9 PA          0.4195    2.3431   -4.4746 P.3       1 ACP         1.5921
     10 O1A         1.3126    3.4107   -5.0688 O.co2     1 ACP        -0.8561
     11 O2A         0.8324    0.8876   -4.5060 O.co2     1 ACP        -0.8561
     12 O3A        -1.0625    2.4739   -5.1484 O.3       1 ACP        -0.8166
     13 O5'         0.0526    2.7390   -2.9307 O.3       1 ACP        -0.5737
     14 C5'        -0.7794    1.8744   -2.1748 C.3       1 ACP         0.2197
     15 C4'        -0.9699    2.4597   -0.7819 C.3       1 ACP         0.0944
     16 O4'        -2.1475    1.8640   -0.2014 O.3       1 ACP        -0.4017
     17 C3'         0.1697    2.1347    0.1695 C.3       1 ACP         0.0859
     18 O3'         0.1809    3.0982    1.2223 O.3       1 ACP        -0.5941
     19 C2'        -0.2543    0.7880    0.7187 C.3       1 ACP         0.0924
     20 O2'         0.3606    0.4944    1.9582 O.3       1 ACP        -0.5928
     21 C1'        -1.7682    0.9516    0.8548 C.3       1 ACP         0.3967
     22 N9         -2.5926   -0.2553    0.7436 N.pl3     1 ACP        -0.6763
     23 C8         -3.1120   -0.7726   -0.4135 C.ar      1 ACP         0.5586
     24 N7         -3.8089   -1.8688   -0.1980 N.2       1 ACP        -0.5795
     25 C5         -3.7380   -2.0700    1.1576 C.ar      1 ACP        -0.2116
     26 C6         -4.2662   -3.0526    1.9890 C.ar      1 ACP         0.7185
     27 N6         -5.0420   -4.0987    1.4609 N.pl3     1 ACP        -0.9442
     28 N1         -4.0226   -2.9899    3.3202 N.ar      1 ACP        -0.8040
     29 C2         -3.2679   -1.9585    3.7704 C.ar      1 ACP         0.6560
     30 N3         -2.7045   -0.9514    3.0680 N.ar      1 ACP        -0.7058
     31 C4         -2.9852   -1.0761    1.7622 C.ar      1 ACP         0.5729
     32 HOG2       -1.8395   -0.5283   -3.2931 H         1 ACP         0.4440
     33 HOG3       -4.1942   -0.7887   -4.9187 H         1 ACP         0.4440
     34 H3B1       -0.2255    0.2574   -6.7486 H         1 ACP         0.1084
     35 H3B2       -1.6754    0.0922   -7.7349 H         1 ACP         0.1084
     36 H5'1       -1.7434    1.7764   -2.6839 H         1 ACP         0.0281
     37 H5'2       -0.3052    0.8897   -2.1149 H         1 ACP         0.0281
     38 H4'        -1.1469    3.5409   -0.8522 H         1 ACP         0.1082
     39 H3'         1.1601    2.1310   -0.2934 H         1 ACP         0.0650
     40 HO3'        0.3098    3.9616    0.8017 H         1 ACP         0.4300
     41 H2'        -0.0024   -0.0091    0.0062 H         1 ACP         0.0785
     42 HO2'        0.0384   -0.3797    2.2403 H         1 ACP         0.4275
     43 H1'        -2.0584    1.4255    1.8301 H         1 ACP         0.1009
     44 H8         -2.9491   -0.3098   -1.3772 H         1 ACP         0.1067
     45 HN61       -5.3737   -4.8224    2.0701 H         1 ACP         0.4213
     46 HN62       -5.1756   -4.1610    0.4694 H         1 ACP         0.4213
     47 H2         -3.0933   -1.9395    4.8410 H         1 ACP         0.0365
@<TRIPOS>BOND
     1    1    2 2
     2    1    3 1
     3    1    4 1
     4    1    8 1
     5    3   32 1
     6    4   33 1
     7    5    6 2
     8    5    7 1
     9    5    8 1
    10    5   12 1
    11    8   34 1
    12    8   35 1
    13    9   10 2
    14    9   11 1
    15    9   12 1
    16    9   13 1
    17   13   14 1
    18   14   15 1
    19   14   36 1
    20   14   37 1
    21   15   16 1
    22   15   17 1
    23   15   38 1
    24   16   21 1
    25   17   18 1
    26   17   19 1
    27   17   39 1
    28   18   40 1
    29   19   20 1
    30   19   21 1
    31   19   41 1
    32   20   42 1
    33   21   22 1
    34   21   43 1
    35   22   23 ar
    36   22   31 ar
    37   23   24 ar
    38   23   44 1
    39   24   25 ar
    40   25   26 ar
    41   25   31 ar
    42   26   27 1
    43   26   28 ar
    44   27   45 1
    45   27   46 1
    46   28   29 ar
    47   29   30 ar
    48   29   47 1
    49   30   31 ar
@<TRIPOS>SUBSTRUCTURE
     1 ACP         1 GROUP 0 A     ****
@<TRIPOS>MOLECULE
[[5-(6-aminopurin-9-yl)-3,4-dihydroxy-tetrahydrofuran-2-yl]methoxy-oxido-phosphoryl]oxy-(phosphonomethyl)phosphinate
   47    49     1     0     0
SMALL
USER_CHARGES

@<TRIPOS>ATOM
      1 PG          8.9732    4.6072    1.3817 P.3       1 ACP         1.6478
      2 O1G         9.4631    3.8285    2.5652 O.2       1 ACP        -0.9103
      3 O2G         9.6718    6.0471    1.1609 O.3       1 ACP        -0.7989
      4 O3G         7.3940    4.9477    1.3818 O.3       1 ACP        -0.7989
      5 PB          8.4714    2.1372   -0.6126 P.3       1 ACP         1.4947
      6 O1B         9.0017    1.1441    0.3954 O.co2     1 ACP        -0.8554
      7 O2B         8.6181    1.9315   -2.1024 O.co2     1 ACP        -0.8554
      8 C3B         9.2160    3.7809   -0.2070 C.3       1 ACP        -0.6550
      9 PA          5.8654    3.5047   -0.9930 P.3       1 ACP         1.5921
     10 O1A         5.5593    2.9518   -2.3681 O.co2     1 ACP        -0.8561
     11 O2A         6.3578    4.9258   -0.8257 O.co2     1 ACP        -0.8561
     12 O3A         6.9226    2.5019   -0.2553 O.3       1 ACP        -0.8166
     13 O5'         4.5669    3.2941   -0.0211 O.3       1 ACP        -0.5737
     14 C5'         4.0922    1.9801    0.2227 C.3       1 ACP         0.2197
     15 C4'         2.5944    2.0310    0.4653 C.3       1 ACP         0.0944
     16 O4'         1.9327    2.5740   -0.6889 O.3       1 ACP        -0.4017
     17 C3'         1.9685    0.6634    0.6767 C.3       1 ACP         0.0859
     18 O3'         2.1425    0.1975    1.9977 O.3       1 ACP        -0.5941
     19 C2'         0.5176    0.9128    0.3099 C.3       1 ACP         0.0924
     20 O2'        -0.2103    1.4454    1.4152 O.3       1 ACP        -0.5928
     21 C1'         0.6219    1.9765   -0.7844 C.3       1 ACP         0.3967
     22 N9          0.4237    1.4496   -2.1357 N.pl3     1 ACP        -0.6763
     23 C8         -0.7736    1.3475   -2.7932 C.ar      1 ACP         0.5586
     24 N7         -0.6356    0.8373   -3.9991 N.2       1 ACP        -0.5795
     25 C5          0.7095    0.5981   -4.1281 C.ar      1 ACP        -0.2116
     26 C6          1.4733    0.0704   -5.1643 C.ar      1 ACP         0.7185
     27 N6          0.8693   -0.3355   -6.3666 N.pl3     1 ACP        -0.9442
     28 N1          2.8130   -0.0482   -5.0009 N.ar      1 ACP        -0.8040
     29 C2          3.3380    0.3602   -3.8204 C.ar      1 ACP         0.6560
     30 N3          2.7052    0.8841   -2.7480 N.ar      1 ACP        -0.7058
     31 C4          1.3867    0.9726   -2.9785 C.ar      1 ACP         0.5729
     32 HOG2        9.6001    6.7233    1.8677 H         1 ACP         0.4440
     33 HOG3        7.0225    5.4789    2.1179 H         1 ACP         0.4440
     34 H3B1        8.8686    4.4628   -0.9913 H         1 ACP         0.1084
     35 H3B2       10.2969    3.6614   -0.3433 H         1 ACP         0.1084
     36 H5'1        4.3181    1.3551   -0.6470 H         1 ACP         0.0281
     37 H5'2        4.6085    1.5740    1.0982 H         1 ACP         0.0281
     38 H4'         2.3751    2.7029    1.3156 H         1 ACP         0.1082
     39 H3'         2.4336   -0.1217   -0.0015 H         1 ACP         0.0650
     40 HO3'        1.7160   -0.6716    2.0397 H         1 ACP         0.4300
     41 H2'         0.0316    0.0155   -0.0339 H         1 ACP         0.0785
     42 HO2'       -0.1608    0.7921    2.1351 H         1 ACP         0.4275
     43 H1'        -0.1474    2.7798   -0.6651 H         1 ACP         0.1009
     44 H8         -1.7070    1.6599   -2.3451 H         1 ACP         0.1067
     45 HN61       -0.1277   -0.2866   -6.4583 H         1 ACP         0.4213
     46 HN62        1.4308   -0.7566   -7.0823 H         1 ACP         0.4213
     47 H2          4.4130    0.2505   -3.7241 H         1 ACP         0.0365
@<TRIPOS>BOND
     1    1    2 2
     2    1    3 1
     3    1    4 1
     4    1    8 1
     5    3   32 1
     6    4   33 1
     7    5    6 2
     8    5    7 1
     9    5    8 1
    10    5   12 1
    11    8   34 1
    12    8   35 1
    13    9   10 2
    14    9   11 1
    15    9   12 1
    16    9   13 1
    17   13   14 1
    18   14   15 1
    19   14   36 1
    20   14   37 1
    21   15   16 1
    22   15   17 1
    23   15   38 1
    24   16   21 1
    25   17   18 1
    26   17   19 1
    27   17   39 1
    28   18   40 1
    29   19   20 1
    30   19   21 1
    31   19   41 1
    32   20   42 1
    33   21   22 1
    34   21   43 1
    35   22   23 ar
    36   22   31 ar
    37   23   24 ar
    38   23   44 1
    39   24   25 ar
    40   25   26 ar
    41   25   31 ar
    42   26   27 1
    43   26   28 ar
    44   27   45 1
    45   27   46 1
    46   28   29 ar
    47   29   30 ar
    48   29   47 1
    49   30   31 ar
@<TRIPOS>SUBSTRUCTURE
     1 ACP         1 GROUP 0 A     ****
@<TRIPOS>MOLECULE
[[5-(6-aminopurin-9-yl)-3,4-dihydroxy-tetrahydrofuran-2-yl]methoxy-oxido-phosphoryl]oxy-(phosphonomethyl)phosphinate
   47    49     1     0     0
SMALL
USER_CHARGES

@<TRIPOS>ATOM
      1 PG          6.1156    5.8448    4.2198 P.3       1 ACP         1.6478
      2 O1G         5.2709    5.6246    5.4386 O.2       1 ACP        -0.9103
      3 O2G         6.9335    7.2377    4.1847 O.3       1 ACP        -0.7989
      4 O3G         5.3192    5.8368    2.8143 O.3       1 ACP        -0.7989
      5 PB          7.0380    2.8022    3.7494 P.3       1 ACP         1.4947
      6 O1B         6.3211    2.3342    4.9945 O.co2     1 ACP        -0.8554
      7 O2B         8.3035    2.1436    3.2510 O.co2     1 ACP        -0.8554
      8 C3B         7.4033    4.6018    3.9705 C.3       1 ACP        -0.6550
      9 PA          6.1804    3.4026    0.9727 P.3       1 ACP         1.5921
     10 O1A         7.0439    2.3709    0.2795 O.co2     1 ACP        -0.8561
     11 O2A         6.5646    4.8662    0.9557 O.co2     1 ACP        -0.8561
     12 O3A         5.9695    2.9423    2.5255 O.3       1 ACP        -0.8166
     13 O5'         4.6404    3.2702    0.4379 O.3       1 ACP        -0.5737
     14 C5'         4.0922    1.9801    0.2227 C.3       1 ACP         0.2197
     15 C4'         2.5944    2.0310    0.4653 C.3       1 ACP         0.0944
     16 O4'         1.9327    2.5740   -0.6889 O.3       1 ACP        -0.4017
     17 C3'         1.9685    0.6634    0.6767 C.3       1 ACP         0.0859
     18 O3'         2.1425    0.1975    1.9977 O.3       1 ACP        -0.5941
     19 C2'         0.5176    0.9128    0.3099 C.3       1 ACP         0.0924
     20 O2'        -0.2103    1.4454    1.4152 O.3       1 ACP        -0.5928
     21 C1'         0.6219    1.9765   -0.7844 C.3       1 ACP         0.3967
     22 N9          0.4237    1.4496   -2.1357 N.pl3     1 ACP        -0.6763
     23 C8          1.4026    0.9717   -2.9660 C.ar      1 ACP         0.5586
     24 N7          0.9183    0.5619   -4.1197 N.2       1 ACP        -0.5795
     25 C5         -0.4330    0.7845   -4.0331 C.ar      1 ACP        -0.2116
     26 C6         -1.4794    0.5615   -4.9225 C.ar      1 ACP         0.7185
     27 N6         -1.2378    0.0044   -6.1899 N.pl3     1 ACP        -0.9442
     28 N1         -2.7406    0.8885   -4.5512 N.ar      1 ACP        -0.8040
     29 C2         -2.9113    1.4216   -3.3172 C.ar      1 ACP         0.6560
     30 N3         -1.9824    1.6843   -2.3721 N.ar      1 ACP        -0.7058
     31 C4         -0.7613    1.3370   -2.8054 C.ar      1 ACP         0.5729
     32 HOG2        6.4354    8.0820    4.2176 H         1 ACP         0.4440
     33 HOG3        4.6086    6.4965    2.6671 H         1 ACP         0.4440
     34 H3B1        7.9803    4.8957    3.0865 H         1 ACP         0.1084
     35 H3B2        8.0805    4.6661    4.8299 H         1 ACP         0.1084
     36 H5'1        4.3030    1.6732   -0.8066 H         1 ACP         0.0281
     37 H5'2        4.5679    1.2741    0.9106 H         1 ACP         0.0281
     38 H4'         2.3751    2.7029    1.3156 H         1 ACP         0.1082
     39 H3'         2.4336   -0.1217   -0.0015 H         1 ACP         0.0650
     40 HO3'        1.7160   -0.6716    2.0397 H         1 ACP         0.4300
     41 H2'         0.0316    0.0155   -0.0339 H         1 ACP         0.0785
     42 HO2'       -0.1608    0.7921    2.1351 H         1 ACP         0.4275
     43 H1'        -0.1474    2.7798   -0.6651 H         1 ACP         0.1009
     44 H8          2.4442    0.9470   -2.6763 H         1 ACP         0.1067
     45 HN61       -2.0105   -0.1920   -6.7974 H         1 ACP         0.4213
     46 HN62       -0.3075   -0.2773   -6.4350 H         1 ACP         0.4213
     47 H2         -3.9335    1.6716   -3.0534 H         1 ACP         0.0365
@<TRIPOS>BOND
     1    1    2 2
     2    1    3 1
     3    1    4 1
     4    1    8 1
     5    3   32 1
     6    4   33 1
     7    5    6 2
     8    5    7 1
     9    5    8 1
    10    5   12 1
    11    8   34 1
    12    8   35 1
    13    9   10 2
    14    9   11 1
    15    9   12 1
    16    9   13 1
    17   13   14 1
    18   14   15 1
    19   14   36 1
    20   14   37 1
    21   15   16 1
    22   15   17 1
    23   15   38 1
    24   16   21 1
    25   17   18 1
    26   17   19 1
    27   17   39 1
    28   18   40 1
    29   19   20 1
    30   19   21 1
    31   19   41 1
    32   20   42 1
    33   21   22 1
    34   21   43 1
    35   22   23 ar
    36   22   31 ar
    37   23   24 ar
    38   23   44 1
    39   24   25 ar
    40   25   26 ar
    41   25   31 ar
    42   26   27 1
    43   26   28 ar
    44   27   45 1
    45   27   46 1
    46   28   29 ar
    47   29   30 ar
    48   29   47 1
    49   30   31 ar
@<TRIPOS>SUBSTRUCTURE
     1 ACP         1 GROUP 0 A     ****
@<TRIPOS>MOLECULE
[[5-(6-aminopurin-9-yl)-3,4-dihydroxy-tetrahydrofuran-2-yl]methoxy-oxido-phosphoryl]oxy-(phosphonomethyl)phosphinate
   47    49     1     0     0
SMALL
USER_CHARGES

@<TRIPOS>ATOM
      1 PG          3.4032    2.0786   -1.5358 P.3       1 ACP         1.6478
      2 O1G         2.6427    1.2005   -0.5883 O.2       1 ACP        -0.9103
      3 O2G         3.3780    1.6153   -3.0834 O.3       1 ACP        -0.7989
      4 O3G         4.9778    2.2441   -1.2149 O.3       1 ACP        -0.7989
      5 PB          1.0941    4.2402   -2.1063 P.3       1 ACP         1.4947
      6 O1B         0.8884    3.7307   -3.5140 O.co2     1 ACP        -0.8554
      7 O2B         0.8840    5.6896   -1.7337 O.co2     1 ACP        -0.8554
      8 C3B         2.8155    3.7861   -1.6048 C.3       1 ACP        -0.6550
      9 PA         -1.2906    2.9169   -0.9367 P.3       1 ACP         1.5921
     10 O1A        -1.6998    2.1387   -2.1686 O.co2     1 ACP        -0.8561
     11 O2A        -2.0377    4.1694   -0.5329 O.co2     1 ACP        -0.8561
     12 O3A         0.2974    3.2793   -1.0570 O.3       1 ACP        -0.8166
     13 O5'        -1.2434    1.9101    0.3513 O.3       1 ACP        -0.5737
     14 C5'        -0.8811    2.4285    1.6206 C.3       1 ACP         0.2197
     15 C4'        -0.1994    1.3333    2.4288 C.3       1 ACP         0.0944
     16 O4'        -1.1285    0.2356    2.5840 O.3       1 ACP        -0.4017
     17 C3'         1.0324    0.7610    1.7344 C.3       1 ACP         0.0859
     18 O3'         1.9175    0.2377    2.7247 O.3       1 ACP        -0.5941
     19 C2'         0.4468   -0.3802    0.9263 C.3       1 ACP         0.0924
     20 O2'         1.3993   -1.3703    0.5961 O.3       1 ACP        -0.5928
     21 C1'        -0.6159   -0.9100    1.8769 C.3       1 ACP         0.3967
     22 N9         -1.7127   -1.6108    1.2130 N.pl3     1 ACP        -0.6763
     23 C8         -2.8641   -1.0399    0.7392 C.ar      1 ACP         0.5586
     24 N7         -3.6659   -1.9257    0.1858 N.2       1 ACP        -0.5795
     25 C5         -3.0053   -3.1223    0.3069 C.ar      1 ACP        -0.2116
     26 C6         -3.3321   -4.4178   -0.0813 C.ar      1 ACP         0.7185
     27 N6         -4.5476   -4.6866   -0.7335 N.pl3     1 ACP        -0.9442
     28 N1         -2.4608   -5.4225    0.1773 N.ar      1 ACP        -0.8040
     29 C2         -1.3053   -5.1020    0.8081 C.ar      1 ACP         0.6560
     30 N3         -0.8788   -3.8921    1.2315 N.ar      1 ACP        -0.7058
     31 C4         -1.7870   -2.9477    0.9438 C.ar      1 ACP         0.5729
     32 HOG2        3.7372    0.7342   -3.3214 H         1 ACP         0.4440
     33 HOG3        5.5475    1.4457   -1.2067 H         1 ACP         0.4440
     34 H3B1        2.9581    4.2256   -0.6112 H         1 ACP         0.1084
     35 H3B2        3.4789    4.3251   -2.2908 H         1 ACP         0.1084
     36 H5'1       -0.2035    3.2759    1.4765 H         1 ACP         0.0281
     37 H5'2       -1.7842    2.7761    2.1320 H         1 ACP         0.0281
     38 H4'         0.0403    1.7078    3.4343 H         1 ACP         0.1082
     39 H3'         1.5906    1.4859    1.1353 H         1 ACP         0.0650
     40 HO3'        2.6839   -0.1150    2.2479 H         1 ACP         0.4300
     41 H2'        -0.0017    0.0018    0.0005 H         1 ACP         0.0785
     42 HO2'        2.0953   -0.9375    0.0709 H         1 ACP         0.4275
     43 H1'        -0.1998   -1.6319    2.6178 H         1 ACP         0.1009
     44 H8         -3.0609    0.0200    0.8250 H         1 ACP         0.1067
     45 HN61       -5.2046   -3.9433   -0.8775 H         1 ACP         0.4213
     46 HN62       -4.7849   -5.6332   -0.9625 H         1 ACP         0.4213
     47 H2         -0.6318   -5.9307    0.9993 H         1 ACP         0.0365
@<TRIPOS>BOND
     1    1    2 2
     2    1    3 1
     3    1    4 1
     4    1    8 1
     5    3   32 1
     6    4   33 1
     7    5    6 2
     8    5    7 1
     9    5    8 1
    10    5   12 1
    11    8   34 1
    12    8   35 1
    13    9   10 2
    14    9   11 1
    15    9   12 1
    16    9   13 1
    17   13   14 1
    18   14   15 1
    19   14   36 1
    20   14   37 1
    21   15   16 1
    22   15   17 1
    23   15   38 1
    24   16   21 1
    25   17   18 1
    26   17   19 1
    27   17   39 1
    28   18   40 1
    29   19   20 1
    30   19   21 1
    31   19   41 1
    32   20   42 1
    33   21   22 1
    34   21   43 1
    35   22   23 ar
    36   22   31 ar
    37   23   24 ar
    38   23   44 1
    39   24   25 ar
    40   25   26 ar
    41   25   31 ar
    42   26   27 1
    43   26   28 ar
    44   27   45 1
    45   27   46 1
    46   28   29 ar
    47   29   30 ar
    48   29   47 1
    49   30   31 ar
@<TRIPOS>SUBSTRUCTURE
     1 ACP         1 GROUP 0 A     ****
@<TRIPOS>MOLECULE
[[5-(6-aminopurin-9-yl)-3,4-dihydroxy-tetrahydrofuran-2-yl]methoxy-oxido-phosphoryl]oxy-(phosphonomethyl)phosphinate
   47    49     1     0     0
SMALL
USER_CHARGES

@<TRIPOS>ATOM
      1 PG         -2.3071    4.1768   -2.1904 P.3       1 ACP         1.6478
      2 O1G        -2.6780    2.9730   -3.0034 O.2       1 ACP        -0.9103
      3 O2G        -1.6195    5.3850   -3.0135 O.3       1 ACP        -0.7989
      4 O3G        -1.2716    3.9038   -0.9810 O.3       1 ACP        -0.7989
      5 PB         -4.7748    4.1140   -0.1321 P.3       1 ACP         1.4947
      6 O1B        -5.4017    2.9316   -0.8339 O.co2     1 ACP        -0.8554
      7 O2B        -5.6010    5.1705    0.5641 O.co2     1 ACP        -0.8554
      8 C3B        -3.7013    4.9779   -1.3658 C.3       1 ACP        -0.6550
      9 PA         -2.5927    4.4187    1.8559 P.3       1 ACP         1.5921
     10 O1A        -3.4214    5.0525    2.9523 O.co2     1 ACP        -0.8561
     11 O2A        -1.6640    5.2600    1.0075 O.co2     1 ACP        -0.8561
     12 O3A        -3.5926    3.5929    0.8630 O.3       1 ACP        -0.8166
     13 O5'        -1.7337    3.1724    2.4754 O.3       1 ACP        -0.5737
     14 C5'        -0.8811    2.4285    1.6206 C.3       1 ACP         0.2197
     15 C4'        -0.1994    1.3333    2.4288 C.3       1 ACP         0.0944
     16 O4'        -1.1285    0.2356    2.5840 O.3       1 ACP        -0.4017
     17 C3'         1.0324    0.7610    1.7344 C.3       1 ACP         0.0859
     18 O3'         1.9175    0.2377    2.7247 O.3       1 ACP        -0.5941
     19 C2'         0.4468   -0.3802    0.9263 C.3       1 ACP         0.0924
     20 O2'         1.3993   -1.3703    0.5961 O.3       1 ACP        -0.5928
     21 C1'        -0.6159   -0.9100    1.8769 C.3       1 ACP         0.3967
     22 N9         -1.7127   -1.6108    1.2130 N.pl3     1 ACP        -0.6763
     23 C8         -2.0877   -2.9101    1.4304 C.ar      1 ACP         0.5586
     24 N7         -3.1152   -3.2613    0.6857 N.2       1 ACP        -0.5795
     25 C5         -3.4186   -2.1409   -0.0462 C.ar      1 ACP        -0.2116
     26 C6         -4.3953   -1.8809   -1.0023 C.ar      1 ACP         0.7185
     27 N6         -5.3118   -2.8767   -1.3812 N.pl3     1 ACP        -0.9442
     28 N1         -4.4538   -0.6507   -1.5667 N.ar      1 ACP        -0.8040
     29 C2         -3.5442    0.2679   -1.1609 C.ar      1 ACP         0.6560
     30 N3         -2.5561    0.1361   -0.2491 N.ar      1 ACP        -0.7058
     31 C4         -2.5568   -1.1019    0.2674 C.ar      1 ACP         0.5729
     32 HOG2       -0.7776    5.2178   -3.4881 H         1 ACP         0.4440
     33 HOG3       -0.3840    3.5414   -1.1881 H         1 ACP         0.4440
     34 H3B1       -3.3158    5.8648   -0.8503 H         1 ACP         0.1084
     35 H3B2       -4.3764    5.3339   -2.1523 H         1 ACP         0.1084
     36 H5'1       -1.4802    1.9929    0.8148 H         1 ACP         0.0281
     37 H5'2       -0.1370    3.1043    1.1873 H         1 ACP         0.0281
     38 H4'         0.0403    1.7078    3.4343 H         1 ACP         0.1082
     39 H3'         1.5906    1.4859    1.1353 H         1 ACP         0.0650
     40 HO3'        2.6839   -0.1150    2.2479 H         1 ACP         0.4300
     41 H2'        -0.0017    0.0018    0.0005 H         1 ACP         0.0785
     42 HO2'        2.0953   -0.9375    0.0709 H         1 ACP         0.4275
     43 H1'        -0.1998   -1.6319    2.6178 H         1 ACP         0.1009
     44 H8         -1.5778   -3.5473    2.1399 H         1 ACP         0.1067
     45 HN61       -5.2294   -3.7965   -0.9914 H         1 ACP         0.4213
     46 HN62       -5.9774   -2.6837   -2.1055 H         1 ACP         0.4213
     47 H2         -3.6201    1.2414   -1.6336 H         1 ACP         0.0365
@<TRIPOS>BOND
     1    1    2 2
     2    1    3 1
     3    1    4 1
     4    1    8 1
     5    3   32 1
     6    4   33 1
     7    5    6 2
     8    5    7 1
     9    5    8 1
    10    5   12 1
    11    8   34 1
    12    8   35 1
    13    9   10 2
    14    9   11 1
    15    9   12 1
    16    9   13 1
    17   13   14 1
    18   14   15 1
    19   14   36 1
    20   14   37 1
    21   15   16 1
    22   15   17 1
    23   15   38 1
    24   16   21 1
    25   17   18 1
    26   17   19 1
    27   17   39 1
    28   18   40 1
    29   19   20 1
    30   19   21 1
    31   19   41 1
    32   20   42 1
    33   21   22 1
    34   21   43 1
    35   22   23 ar
    36   22   31 ar
    37   23   24 ar
    38   23   44 1
    39   24   25 ar
    40   25   26 ar
    41   25   31 ar
    42   26   27 1
    43   26   28 ar
    44   27   45 1
    45   27   46 1
    46   28   29 ar
    47   29   30 ar
    48   29   47 1
    49   30   31 ar
@<TRIPOS>SUBSTRUCTURE
     1 ACP         1 GROUP 0 A     ****
@<TRIPOS>MOLECULE
[[5-(6-aminopurin-9-yl)-3,4-dihydroxy-tetrahydrofuran-2-yl]methoxy-oxido-phosphoryl]oxy-(phosphonomethyl)phosphinate
   47    49     1     0     0
SMALL
USER_CHARGES

@<TRIPOS>ATOM
      1 PG          1.0826   -0.9748   -5.0083 P.3       1 ACP         1.6478
      2 O1G         1.3024   -2.1985   -4.1707 O.2       1 ACP        -0.9103
      3 O2G         2.2483   -0.6474   -6.0779 O.3       1 ACP        -0.7989
      4 O3G         0.9218    0.4071   -4.1873 O.3       1 ACP        -0.7989
      5 PB         -2.1090   -1.1997   -5.3142 P.3       1 ACP         1.4947
      6 O1B        -2.1451   -2.5056   -4.5547 O.co2     1 ACP        -0.8554
      7 O2B        -3.0931   -0.8787   -6.4150 O.co2     1 ACP        -0.8554
      8 C3B        -0.4104   -1.0256   -6.0252 C.3       1 ACP        -0.6550
      9 PA         -1.9759    1.6544   -4.5128 P.3       1 ACP         1.5921
     10 O1A        -3.2816    2.0899   -5.1421 O.co2     1 ACP        -0.8561
     11 O2A        -0.6544    1.9867   -5.1711 O.co2     1 ACP        -0.8561
     12 O3A        -2.0355    0.0420   -4.2597 O.3       1 ACP        -0.8166
     13 O5'        -1.9208    2.1717   -2.9622 O.3       1 ACP        -0.5737
     14 C5'        -0.7794    1.8744   -2.1748 C.3       1 ACP         0.2197
     15 C4'        -0.9699    2.4597   -0.7819 C.3       1 ACP         0.0944
     16 O4'        -2.1475    1.8640   -0.2014 O.3       1 ACP        -0.4017
     17 C3'         0.1697    2.1347    0.1695 C.3       1 ACP         0.0859
     18 O3'         0.1809    3.0982    1.2223 O.3       1 ACP        -0.5941
     19 C2'        -0.2543    0.7880    0.7187 C.3       1 ACP         0.0924
     20 O2'         0.3606    0.4944    1.9582 O.3       1 ACP        -0.5928
     21 C1'        -1.7682    0.9516    0.8548 C.3       1 ACP         0.3967
     22 N9         -2.5926   -0.2553    0.7436 N.pl3     1 ACP        -0.6763
     23 C8         -2.2879   -1.3752    0.0161 C.ar      1 ACP         0.5586
     24 N7         -3.2214   -2.2987    0.1123 N.2       1 ACP        -0.5795
     25 C5         -4.1723   -1.7531    0.9377 C.ar      1 ACP        -0.2116
     26 C6         -5.3870   -2.2342    1.4159 C.ar      1 ACP         0.7185
     27 N6         -5.8433   -3.5142    1.0574 N.pl3     1 ACP        -0.9442
     28 N1         -6.1289   -1.4512    2.2356 N.ar      1 ACP        -0.8040
     29 C2         -5.6370   -0.2275    2.5461 C.ar      1 ACP         0.6560
     30 N3         -4.4810    0.3469    2.1476 N.ar      1 ACP        -0.7058
     31 C4         -3.7996   -0.4810    1.3417 C.ar      1 ACP         0.5729
     32 HOG2        3.1595   -0.4859   -5.7530 H         1 ACP         0.4440
     33 HOG3        1.6583    0.7073   -3.6133 H         1 ACP         0.4440
     34 H3B1       -0.4346   -0.1080   -6.6237 H         1 ACP         0.1084
     35 H3B2       -0.2922   -1.8605   -6.7252 H         1 ACP         0.1084
     36 H5'1       -0.6602    0.7877   -2.1203 H         1 ACP         0.0281
     37 H5'2        0.1041    2.3072   -2.6545 H         1 ACP         0.0281
     38 H4'        -1.1469    3.5409   -0.8522 H         1 ACP         0.1082
     39 H3'         1.1601    2.1310   -0.2934 H         1 ACP         0.0650
     40 HO3'        0.9173    2.8584    1.8048 H         1 ACP         0.4300
     41 H2'        -0.0024   -0.0091    0.0062 H         1 ACP         0.0785
     42 HO2'        0.0384   -0.3797    2.2403 H         1 ACP         0.4275
     43 H1'        -2.0584    1.4255    1.8301 H         1 ACP         0.1009
     44 H8         -1.3765   -1.4593   -0.5599 H         1 ACP         0.1067
     45 HN61       -5.3086   -4.0656    0.4134 H         1 ACP         0.4213
     46 HN62       -6.7426   -3.8233    1.3745 H         1 ACP         0.4213
     47 H2         -6.2570    0.3723    3.2040 H         1 ACP         0.0365
@<TRIPOS>BOND
     1    1    2 2
     2    1    3 1
     3    1    4 1
     4    1    8 1
     5    3   32 1
     6    4   33 1
     7    5    6 2
     8    5    7 1
     9    5    8 1
    10    5   12 1
    11    8   34 1
    12    8   35 1
    13    9   10 2
    14    9   11 1
    15    9   12 1
    16    9   13 1
    17   13   14 1
    18   14   15 1
    19   14   36 1
    20   14   37 1
    21   15   16 1
    22   15   17 1
    23   15   38 1
    24   16   21 1
    25   17   18 1
    26   17   19 1
    27   17   39 1
    28   18   40 1
    29   19   20 1
    30   19   21 1
    31   19   41 1
    32   20   42 1
    33   21   22 1
    34   21   43 1
    35   22   23 ar
    36   22   31 ar
    37   23   24 ar
    38   23   44 1
    39   24   25 ar
    40   25   26 ar
    41   25   31 ar
    42   26   27 1
    43   26   28 ar
    44   27   45 1
    45   27   46 1
    46   28   29 ar
    47   29   30 ar
    48   29   47 1
    49   30   31 ar
@<TRIPOS>SUBSTRUCTURE
     1 ACP         1 GROUP 0 A     ****
@<TRIPOS>MOLECULE
[[5-(6-aminopurin-9-yl)-3,4-dihydroxy-tetrahydrofuran-2-yl]methoxy-oxido-phosphoryl]oxy-(phosphonomethyl)phosphinate
   47    49     1     0     0
SMALL
USER_CHARGES

@<TRIPOS>ATOM
      1 PG         -6.5906    5.0096    1.4307 P.3       1 ACP         1.6478
      2 O1G        -7.3486    4.8386    0.1487 O.2       1 ACP        -0.9103
      3 O2G        -7.4427    5.6070    2.6664 O.3       1 ACP        -0.7989
      4 O3G        -5.3045    5.9838    1.3505 O.3       1 ACP        -0.7989
      5 PB         -4.6898    2.4297    1.1832 P.3       1 ACP         1.4947
      6 O1B        -5.3544    1.9948   -0.1023 O.co2     1 ACP        -0.8554
      7 O2B        -4.1133    1.4399    2.1689 O.co2     1 ACP        -0.8554
      8 C3B        -5.9056    3.4779    2.1018 C.3       1 ACP        -0.6550
      9 PA         -2.5927    4.4187    1.8559 P.3       1 ACP         1.5921
     10 O1A        -3.4214    5.0525    2.9523 O.co2     1 ACP        -0.8561
     11 O2A        -1.6640    5.2600    1.0075 O.co2     1 ACP        -0.8561
     12 O3A        -3.5926    3.5929    0.8630 O.3       1 ACP        -0.8166
     13 O5'        -1.7337    3.1724    2.4754 O.3       1 ACP        -0.5737
     14 C5'        -0.8811    2.4285    1.6206 C.3       1 ACP         0.2197
     15 C4'        -0.1994    1.3333    2.4288 C.3       1 ACP         0.0944
     16 O4'        -1.1285    0.2356    2.5840 O.3       1 ACP        -0.4017
     17 C3'         1.0324    0.7610    1.7344 C.3       1 ACP         0.0859
     18 O3'         1.9175    0.2377    2.7247 O.3       1 ACP        -0.5941
     19 C2'         0.4468   -0.3802    0.9263 C.3       1 ACP         0.0924
     20 O2'         1.3993   -1.3703    0.5961 O.3       1 ACP        -0.5928
     21 C1'        -0.6159   -0.9100    1.8769 C.3       1 ACP         0.3967
     22 N9         -1.7127   -1.6108    1.2130 N.pl3     1 ACP        -0.6763
     23 C8         -2.0877   -2.9101    1.4304 C.ar      1 ACP         0.5586
     24 N7         -3.1152   -3.2613    0.6857 N.2       1 ACP        -0.5795
     25 C5         -3.4186   -2.1409   -0.0462 C.ar      1 ACP        -0.2116
     26 C6         -4.3953   -1.8809   -1.0023 C.ar      1 ACP         0.7185
     27 N6         -5.3118   -2.8767   -1.3812 N.pl3     1 ACP        -0.9442
     28 N1         -4.4538   -0.6507   -1.5667 N.ar      1 ACP        -0.8040
     29 C2         -3.5442    0.2679   -1.1609 C.ar      1 ACP         0.6560
     30 N3         -2.5561    0.1361   -0.2491 N.ar      1 ACP        -0.7058
     31 C4         -2.5568   -1.1019    0.2674 C.ar      1 ACP         0.5729
     32 HOG2       -7.8528    6.4935    2.5762 H         1 ACP         0.4440
     33 HOG3       -5.4330    6.9197    1.0868 H         1 ACP         0.4440
     34 H3B1       -5.4233    3.7209    3.0553 H         1 ACP         0.1084
     35 H3B2       -6.7532    2.8219    2.3308 H         1 ACP         0.1084
     36 H5'1       -1.4802    1.9929    0.8148 H         1 ACP         0.0281
     37 H5'2       -0.1370    3.1043    1.1873 H         1 ACP         0.0281
     38 H4'         0.0403    1.7078    3.4343 H         1 ACP         0.1082
     39 H3'         1.5906    1.4859    1.1353 H         1 ACP         0.0650
     40 HO3'        2.6839   -0.1150    2.2479 H         1 ACP         0.4300
     41 H2'        -0.0017    0.0018    0.0005 H         1 ACP         0.0785
     42 HO2'        0.9369   -2.0558    0.0825 H         1 ACP         0.4275
     43 H1'        -0.1998   -1.6319    2.6178 H         1 ACP         0.1009
     44 H8         -1.5778   -3.5473    2.1399 H         1 ACP         0.1067
     45 HN61       -5.2294   -3.7965   -0.9914 H         1 ACP         0.4213
     46 HN62       -5.9774   -2.6837   -2.1055 H         1 ACP         0.4213
     47 H2         -3.6201    1.2414   -1.6336 H         1 ACP         0.0365
@<TRIPOS>BOND
     1    1    2 2
     2    1    3 1
     3    1    4 1
     4    1    8 1
     5    3   32 1
     6    4   33 1
     7    5    6 2
     8    5    7 1
     9    5    8 1
    10    5   12 1
    11    8   34 1
    12    8   35 1
    13    9   10 2
    14    9   11 1
    15    9   12 1
    16    9   13 1
    17   13   14 1
    18   14   15 1
    19   14   36 1
    20   14   37 1
    21   15   16 1
    22   15   17 1
    23   15   38 1
    24   16   21 1
    25   17   18 1
    26   17   19 1
    27   17   39 1
    28   18   40 1
    29   19   20 1
    30   19   21 1
    31   19   41 1
    32   20   42 1
    33   21   22 1
    34   21   43 1
    35   22   23 ar
    36   22   31 ar
    37   23   24 ar
    38   23   44 1
    39   24   25 ar
    40   25   26 ar
    41   25   31 ar
    42   26   27 1
    43   26   28 ar
    44   27   45 1
    45   27   46 1
    46   28   29 ar
    47   29   30 ar
    48   29   47 1
    49   30   31 ar
@<TRIPOS>SUBSTRUCTURE
     1 ACP         1 GROUP 0 A     ****
@<TRIPOS>MOLECULE
[[5-(6-aminopurin-9-yl)-3,4-dihydroxy-tetrahydrofuran-2-yl]methoxy-oxido-phosphoryl]oxy-(phosphonomethyl)phosphinate
   47    49     1     0     0
SMALL
USER_CHARGES

@<TRIPOS>ATOM
      1 PG          8.2955    2.3743    1.5610 P.3       1 ACP         1.6478
      2 O1G         8.2413    1.9432    2.9958 O.2       1 ACP        -0.9103
      3 O2G         9.2975    3.6010    1.2423 O.3       1 ACP        -0.7989
      4 O3G         6.8898    2.8587    0.9295 O.3       1 ACP        -0.7989
      5 PB          7.9438   -0.5175    0.2031 P.3       1 ACP         1.4947
      6 O1B         7.9381   -1.2089    1.5468 O.co2     1 ACP        -0.8554
      7 O2B         8.4906   -1.1771   -1.0417 O.co2     1 ACP        -0.8554
      8 C3B         8.8395    1.0867    0.4157 C.3       1 ACP        -0.6550
      9 PA          5.8978    0.9307   -1.3850 P.3       1 ACP         1.5921
     10 O1A         5.9190    0.0229   -2.5958 O.co2     1 ACP        -0.8561
     11 O2A         6.5864    2.2777   -1.4195 O.co2     1 ACP        -0.8561
     12 O3A         6.4633    0.0945   -0.1011 O.3       1 ACP        -0.8166
     13 O5'         4.3514    1.1573   -0.9028 O.3       1 ACP        -0.5737
     14 C5'         4.0922    1.9801    0.2227 C.3       1 ACP         0.2197
     15 C4'         2.5944    2.0310    0.4653 C.3       1 ACP         0.0944
     16 O4'         1.9327    2.5740   -0.6889 O.3       1 ACP        -0.4017
     17 C3'         1.9685    0.6634    0.6767 C.3       1 ACP         0.0859
     18 O3'         2.1425    0.1975    1.9977 O.3       1 ACP        -0.5941
     19 C2'         0.5176    0.9128    0.3099 C.3       1 ACP         0.0924
     20 O2'        -0.2103    1.4454    1.4152 O.3       1 ACP        -0.5928
     21 C1'         0.6219    1.9765   -0.7844 C.3       1 ACP         0.3967
     22 N9          0.4237    1.4496   -2.1357 N.pl3     1 ACP        -0.6763
     23 C8          1.4026    0.9717   -2.9660 C.ar      1 ACP         0.5586
     24 N7          0.9183    0.5619   -4.1197 N.2       1 ACP        -0.5795
     25 C5         -0.4330    0.7845   -4.0331 C.ar      1 ACP        -0.2116
     26 C6         -1.4794    0.5615   -4.9225 C.ar      1 ACP         0.7185
     27 N6         -1.2378    0.0044   -6.1899 N.pl3     1 ACP        -0.9442
     28 N1         -2.7406    0.8885   -4.5512 N.ar      1 ACP        -0.8040
     29 C2         -2.9113    1.4216   -3.3172 C.ar      1 ACP         0.6560
     30 N3         -1.9824    1.6843   -2.3721 N.ar      1 ACP        -0.7058
     31 C4         -0.7613    1.3370   -2.8054 C.ar      1 ACP         0.5729
     32 HOG2        9.1502    4.4626    1.6872 H         1 ACP         0.4440
     33 HOG3        6.4254    3.6224    1.3334 H         1 ACP         0.4440
     34 H3B1        8.8869    1.5319   -0.5845 H         1 ACP         0.1084
     35 H3B2        9.8652    0.8217    0.6962 H         1 ACP         0.1084
     36 H5'1        4.6070    1.5616    1.0933 H         1 ACP         0.0281
     37 H5'2        4.4825    2.9835    0.0251 H         1 ACP         0.0281
     38 H4'         2.3751    2.7029    1.3156 H         1 ACP         0.1082
     39 H3'         2.4336   -0.1217   -0.0015 H         1 ACP         0.0650
     40 HO3'        1.7160   -0.6716    2.0397 H         1 ACP         0.4300
     41 H2'         0.0316    0.0155   -0.0339 H         1 ACP         0.0785
     42 HO2'       -0.1608    0.7921    2.1351 H         1 ACP         0.4275
     43 H1'        -0.1474    2.7798   -0.6651 H         1 ACP         0.1009
     44 H8          2.4442    0.9470   -2.6763 H         1 ACP         0.1067
     45 HN61       -0.2955   -0.1901   -6.4713 H         1 ACP         0.4213
     46 HN62       -1.9987   -0.1045   -6.8334 H         1 ACP         0.4213
     47 H2         -3.9335    1.6716   -3.0534 H         1 ACP         0.0365
@<TRIPOS>BOND
     1    1    2 2
     2    1    3 1
     3    1    4 1
     4    1    8 1
     5    3   32 1
     6    4   33 1
     7    5    6 2
     8    5    7 1
     9    5    8 1
    10    5   12 1
    11    8   34 1
    12    8   35 1
    13    9   10 2
    14    9   11 1
    15    9   12 1
    16    9   13 1
    17   13   14 1
    18   14   15 1
    19   14   36 1
    20   14   37 1
    21   15   16 1
    22   15   17 1
    23   15   38 1
    24   16   21 1
    25   17   18 1
    26   17   19 1
    27   17   39 1
    28   18   40 1
    29   19   20 1
    30   19   21 1
    31   19   41 1
    32   20   42 1
    33   21   22 1
    34   21   43 1
    35   22   23 ar
    36   22   31 ar
    37   23   24 ar
    38   23   44 1
    39   24   25 ar
    40   25   26 ar
    41   25   31 ar
    42   26   27 1
    43   26   28 ar
    44   27   45 1
    45   27   46 1
    46   28   29 ar
    47   29   30 ar
    48   29   47 1
    49   30   31 ar
@<TRIPOS>SUBSTRUCTURE
     1 ACP         1 GROUP 0 A     ****
@<TRIPOS>MOLECULE
[[5-(6-aminopurin-9-yl)-3,4-dihydroxy-tetrahydrofuran-2-yl]methoxy-oxido-phosphoryl]oxy-(phosphonomethyl)phosphinate
   47    49     1     0     0
SMALL
USER_CHARGES

@<TRIPOS>ATOM
      1 PG          5.2939    3.9015   -5.4128 P.3       1 ACP         1.6478
      2 O1G         6.6161    3.3547   -4.9656 O.2       1 ACP        -0.9103
      3 O2G         4.6331    3.1627   -6.6886 O.3       1 ACP        -0.7989
      4 O3G         5.2963    5.4605   -5.8363 O.3       1 ACP        -0.7989
      5 PB          4.1122    4.6576   -2.5211 P.3       1 ACP         1.4947
      6 O1B         2.8387    4.3533   -1.7667 O.co2     1 ACP        -0.8554
      7 O2B         4.5831    6.0712   -2.7728 O.co2     1 ACP        -0.8554
      8 C3B         3.9908    3.8162   -4.1638 C.3       1 ACP        -0.6550
      9 PA          5.9683    3.7222   -0.4031 P.3       1 ACP         1.5921
     10 O1A         6.3619    5.1281   -0.0042 O.co2     1 ACP        -0.8561
     11 O2A         6.9748    2.5938   -0.3434 O.co2     1 ACP        -0.8561
     12 O3A         5.3344    3.7693   -1.9076 O.3       1 ACP        -0.8166
     13 O5'         4.6404    3.2702    0.4379 O.3       1 ACP        -0.5737
     14 C5'         4.0922    1.9801    0.2227 C.3       1 ACP         0.2197
     15 C4'         2.5944    2.0310    0.4653 C.3       1 ACP         0.0944
     16 O4'         1.9327    2.5740   -0.6889 O.3       1 ACP        -0.4017
     17 C3'         1.9685    0.6634    0.6767 C.3       1 ACP         0.0859
     18 O3'         2.1425    0.1975    1.9977 O.3       1 ACP        -0.5941
     19 C2'         0.5176    0.9128    0.3099 C.3       1 ACP         0.0924
     20 O2'        -0.2103    1.4454    1.4152 O.3       1 ACP        -0.5928
     21 C1'         0.6219    1.9765   -0.7844 C.3       1 ACP         0.3967
     22 N9          0.4237    1.4496   -2.1357 N.pl3     1 ACP        -0.6763
     23 C8          1.4026    0.9717   -2.9660 C.ar      1 ACP         0.5586
     24 N7          0.9183    0.5619   -4.1197 N.2       1 ACP        -0.5795
     25 C5         -0.4330    0.7845   -4.0331 C.ar      1 ACP        -0.2116
     26 C6         -1.4794    0.5615   -4.9225 C.ar      1 ACP         0.7185
     27 N6         -1.2378    0.0044   -6.1899 N.pl3     1 ACP        -0.9442
     28 N1         -2.7406    0.8885   -4.5512 N.ar      1 ACP        -0.8040
     29 C2         -2.9113    1.4216   -3.3172 C.ar      1 ACP         0.6560
     30 N3         -1.9824    1.6843   -2.3721 N.ar      1 ACP        -0.7058
     31 C4         -0.7613    1.3370   -2.8054 C.ar      1 ACP         0.5729
     32 HOG2        5.1237    3.1516   -7.5379 H         1 ACP         0.4440
     33 HOG3        5.8744    5.7518   -6.5732 H         1 ACP         0.4440
     34 H3B1        3.0692    4.1943   -4.6206 H         1 ACP         0.1084
     35 H3B2        3.8267    2.7550   -3.9448 H         1 ACP         0.1084
     36 H5'1        4.3030    1.6732   -0.8066 H         1 ACP         0.0281
     37 H5'2        4.5679    1.2741    0.9106 H         1 ACP         0.0281
     38 H4'         2.3751    2.7029    1.3156 H         1 ACP         0.1082
     39 H3'         2.4336   -0.1217   -0.0015 H         1 ACP         0.0650
     40 HO3'        1.7160   -0.6716    2.0397 H         1 ACP         0.4300
     41 H2'         0.0316    0.0155   -0.0339 H         1 ACP         0.0785
     42 HO2'       -0.1608    0.7921    2.1351 H         1 ACP         0.4275
     43 H1'        -0.1474    2.7798   -0.6651 H         1 ACP         0.1009
     44 H8          2.4442    0.9470   -2.6763 H         1 ACP         0.1067
     45 HN61       -0.2955   -0.1901   -6.4713 H         1 ACP         0.4213
     46 HN62       -1.9987   -0.1045   -6.8334 H         1 ACP         0.4213
     47 H2         -3.9335    1.6716   -3.0534 H         1 ACP         0.0365
@<TRIPOS>BOND
     1    1    2 2
     2    1    3 1
     3    1    4 1
     4    1    8 1
     5    3   32 1
     6    4   33 1
     7    5    6 2
     8    5    7 1
     9    5    8 1
    10    5   12 1
    11    8   34 1
    12    8   35 1
    13    9   10 2
    14    9   11 1
    15    9   12 1
    16    9   13 1
    17   13   14 1
    18   14   15 1
    19   14   36 1
    20   14   37 1
    21   15   16 1
    22   15   17 1
    23   15   38 1
    24   16   21 1
    25   17   18 1
    26   17   19 1
    27   17   39 1
    28   18   40 1
    29   19   20 1
    30   19   21 1
    31   19   41 1
    32   20   42 1
    33   21   22 1
    34   21   43 1
    35   22   23 ar
    36   22   31 ar
    37   23   24 ar
    38   23   44 1
    39   24   25 ar
    40   25   26 ar
    41   25   31 ar
    42   26   27 1
    43   26   28 ar
    44   27   45 1
    45   27   46 1
    46   28   29 ar
    47   29   30 ar
    48   29   47 1
    49   30   31 ar
@<TRIPOS>SUBSTRUCTURE
     1 ACP         1 GROUP 0 A     ****
@<TRIPOS>MOLECULE
[[5-(6-aminopurin-9-yl)-3,4-dihydroxy-tetrahydrofuran-2-yl]methoxy-oxido-phosphoryl]oxy-(phosphonomethyl)phosphinate
   47    49     1     0     0
SMALL
USER_CHARGES

@<TRIPOS>ATOM
      1 PG          4.3705    1.6897   -5.6803 P.3       1 ACP         1.6478
      2 O1G         3.2880    2.6049   -6.1680 O.2       1 ACP        -0.9103
      3 O2G         4.9345    0.6391   -6.7704 O.3       1 ACP        -0.7989
      4 O3G         3.9742    0.7559   -4.4230 O.3       1 ACP        -0.7989
      5 PB          5.8607    3.7526   -3.7171 P.3       1 ACP         1.4947
      6 O1B         4.9329    4.8798   -4.1073 O.co2     1 ACP        -0.8554
      7 O2B         7.3008    3.9911   -3.3261 O.co2     1 ACP        -0.8554
      8 C3B         5.8619    2.5361   -5.1103 C.3       1 ACP        -0.6550
      9 PA          5.6601    1.4686   -1.8331 P.3       1 ACP         1.5921
     10 O1A         6.8273    1.8491   -0.9479 O.co2     1 ACP        -0.8561
     11 O2A         5.7948    0.3565   -2.8504 O.co2     1 ACP        -0.8561
     12 O3A         5.1344    2.8104   -2.6017 O.3       1 ACP        -0.8166
     13 O5'         4.3514    1.1573   -0.9028 O.3       1 ACP        -0.5737
     14 C5'         4.0922    1.9801    0.2227 C.3       1 ACP         0.2197
     15 C4'         2.5944    2.0310    0.4653 C.3       1 ACP         0.0944
     16 O4'         1.9327    2.5740   -0.6889 O.3       1 ACP        -0.4017
     17 C3'         1.9685    0.6634    0.6767 C.3       1 ACP         0.0859
     18 O3'         2.1425    0.1975    1.9977 O.3       1 ACP        -0.5941
     19 C2'         0.5176    0.9128    0.3099 C.3       1 ACP         0.0924
     20 O2'        -0.2103    1.4454    1.4152 O.3       1 ACP        -0.5928
     21 C1'         0.6219    1.9765   -0.7844 C.3       1 ACP         0.3967
     22 N9          0.4237    1.4496   -2.1357 N.pl3     1 ACP        -0.6763
     23 C8          1.4026    0.9717   -2.9660 C.ar      1 ACP         0.5586
     24 N7          0.9183    0.5619   -4.1197 N.2       1 ACP        -0.5795
     25 C5         -0.4330    0.7845   -4.0331 C.ar      1 ACP        -0.2116
     26 C6         -1.4794    0.5615   -4.9225 C.ar      1 ACP         0.7185
     27 N6         -1.2378    0.0044   -6.1899 N.pl3     1 ACP        -0.9442
     28 N1         -2.7406    0.8885   -4.5512 N.ar      1 ACP        -0.8040
     29 C2         -2.9113    1.4216   -3.3172 C.ar      1 ACP         0.6560
     30 N3         -1.9824    1.6843   -2.3721 N.ar      1 ACP        -0.7058
     31 C4         -0.7613    1.3370   -2.8054 C.ar      1 ACP         0.5729
     32 HOG2        4.3154   -0.0069   -7.1722 H         1 ACP         0.4440
     33 HOG3        3.2285    0.1255   -4.5158 H         1 ACP         0.4440
     34 H3B1        6.5916    1.7682   -4.8297 H         1 ACP         0.1084
     35 H3B2        6.2761    3.0701   -5.9732 H         1 ACP         0.1084
     36 H5'1        4.6070    1.5616    1.0933 H         1 ACP         0.0281
     37 H5'2        4.4825    2.9835    0.0251 H         1 ACP         0.0281
     38 H4'         2.3751    2.7029    1.3156 H         1 ACP         0.1082
     39 H3'         2.4336   -0.1217   -0.0015 H         1 ACP         0.0650
     40 HO3'        1.7160   -0.6716    2.0397 H         1 ACP         0.4300
     41 H2'         0.0316    0.0155   -0.0339 H         1 ACP         0.0785
     42 HO2'       -0.1608    0.7921    2.1351 H         1 ACP         0.4275
     43 H1'        -0.1474    2.7798   -0.6651 H         1 ACP         0.1009
     44 H8          2.4442    0.9470   -2.6763 H         1 ACP         0.1067
     45 HN61       -0.2955   -0.1901   -6.4713 H         1 ACP         0.4213
     46 HN62       -1.9987   -0.1045   -6.8334 H         1 ACP         0.4213
     47 H2         -3.9335    1.6716   -3.0534 H         1 ACP         0.0365
@<TRIPOS>BOND
     1    1    2 2
     2    1    3 1
     3    1    4 1
     4    1    8 1
     5    3   32 1
     6    4   33 1
     7    5    6 2
     8    5    7 1
     9    5    8 1
    10    5   12 1
    11    8   34 1
    12    8   35 1
    13    9   10 2
    14    9   11 1
    15    9   12 1
    16    9   13 1
    17   13   14 1
    18   14   15 1
    19   14   36 1
    20   14   37 1
    21   15   16 1
    22   15   17 1
    23   15   38 1
    24   16   21 1
    25   17   18 1
    26   17   19 1
    27   17   39 1
    28   18   40 1
    29   19   20 1
    30   19   21 1
    31   19   41 1
    32   20   42 1
    33   21   22 1
    34   21   43 1
    35   22   23 ar
    36   22   31 ar
    37   23   24 ar
    38   23   44 1
    39   24   25 ar
    40   25   26 ar
    41   25   31 ar
    42   26   27 1
    43   26   28 ar
    44   27   45 1
    45   27   46 1
    46   28   29 ar
    47   29   30 ar
    48   29   47 1
    49   30   31 ar
@<TRIPOS>SUBSTRUCTURE
     1 ACP         1 GROUP 0 A     ****
@<TRIPOS>MOLECULE
[[5-(6-aminopurin-9-yl)-3,4-dihydroxy-tetrahydrofuran-2-yl]methoxy-oxido-phosphoryl]oxy-(phosphonomethyl)phosphinate
   47    49     1     0     0
SMALL
USER_CHARGES

@<TRIPOS>ATOM
      1 PG         -0.8765   -2.3881   -3.2359 P.3       1 ACP         1.6478
      2 O1G        -1.2049   -1.2632   -2.3010 O.2       1 ACP        -0.9103
      3 O2G        -1.8845   -2.5688   -4.4855 O.3       1 ACP        -0.7989
      4 O3G        -0.8365   -3.8572   -2.5652 O.3       1 ACP        -0.7989
      5 PB          1.2216   -0.8285   -5.1055 P.3       1 ACP         1.4947
      6 O1B         0.2513   -0.7981   -6.2636 O.co2     1 ACP        -0.8554
      7 O2B         2.7175   -0.8994   -5.3075 O.co2     1 ACP        -0.8554
      8 C3B         0.7429   -2.2521   -4.0262 C.3       1 ACP        -0.6550
      9 PA          0.8118    1.9901   -4.2726 P.3       1 ACP         1.5921
     10 O1A        -0.3068    2.3135   -5.2395 O.co2     1 ACP        -0.8561
     11 O2A         2.2194    2.4825   -4.5299 O.co2     1 ACP        -0.8561
     12 O3A         0.8616    0.3713   -4.0614 O.3       1 ACP        -0.8166
     13 O5'         0.3757    2.4482   -2.7643 O.3       1 ACP        -0.5737
     14 C5'        -0.7794    1.8744   -2.1748 C.3       1 ACP         0.2197
     15 C4'        -0.9699    2.4597   -0.7819 C.3       1 ACP         0.0944
     16 O4'        -2.1475    1.8640   -0.2014 O.3       1 ACP        -0.4017
     17 C3'         0.1697    2.1347    0.1695 C.3       1 ACP         0.0859
     18 O3'         0.1809    3.0982    1.2223 O.3       1 ACP        -0.5941
     19 C2'        -0.2543    0.7880    0.7187 C.3       1 ACP         0.0924
     20 O2'         0.3606    0.4944    1.9582 O.3       1 ACP        -0.5928
     21 C1'        -1.7682    0.9516    0.8548 C.3       1 ACP         0.3967
     22 N9         -2.5926   -0.2553    0.7436 N.pl3     1 ACP        -0.6763
     23 C8         -3.1120   -0.7726   -0.4135 C.ar      1 ACP         0.5586
     24 N7         -3.8089   -1.8688   -0.1980 N.2       1 ACP        -0.5795
     25 C5         -3.7380   -2.0700    1.1576 C.ar      1 ACP        -0.2116
     26 C6         -4.2662   -3.0526    1.9890 C.ar      1 ACP         0.7185
     27 N6         -5.0420   -4.0987    1.4609 N.pl3     1 ACP        -0.9442
     28 N1         -4.0226   -2.9899    3.3202 N.ar      1 ACP        -0.8040
     29 C2         -3.2679   -1.9585    3.7704 C.ar      1 ACP         0.6560
     30 N3         -2.7045   -0.9514    3.0680 N.ar      1 ACP        -0.7058
     31 C4         -2.9852   -1.0761    1.7622 C.ar      1 ACP         0.5729
     32 HOG2       -2.8326   -2.7478   -4.3090 H         1 ACP         0.4440
     33 HOG3       -1.6465   -4.2058   -2.1358 H         1 ACP         0.4440
     34 H3B1        1.5012   -2.2901   -3.2359 H         1 ACP         0.1084
     35 H3B2        0.8758   -3.1505   -4.6397 H         1 ACP         0.1084
     36 H5'1       -1.6462    2.0968   -2.8052 H         1 ACP         0.0281
     37 H5'2       -0.6469    0.7893   -2.1194 H         1 ACP         0.0281
     38 H4'        -1.1469    3.5409   -0.8522 H         1 ACP         0.1082
     39 H3'         1.1601    2.1310   -0.2934 H         1 ACP         0.0650
     40 HO3'        0.3098    3.9616    0.8017 H         1 ACP         0.4300
     41 H2'        -0.0024   -0.0091    0.0062 H         1 ACP         0.0785
     42 HO2'        0.0384   -0.3797    2.2403 H         1 ACP         0.4275
     43 H1'        -2.0584    1.4255    1.8301 H         1 ACP         0.1009
     44 H8         -2.9491   -0.3098   -1.3772 H         1 ACP         0.1067
     45 HN61       -5.2544   -4.1089    0.4813 H         1 ACP         0.4213
     46 HN62       -5.4523   -4.7699    2.0823 H         1 ACP         0.4213
     47 H2         -3.0933   -1.9395    4.8410 H         1 ACP         0.0365
@<TRIPOS>BOND
     1    1    2 2
     2    1    3 1
     3    1    4 1
     4    1    8 1
     5    3   32 1
     6    4   33 1
     7    5    6 2
     8    5    7 1
     9    5    8 1
    10    5   12 1
    11    8   34 1
    12    8   35 1
    13    9   10 2
    14    9   11 1
    15    9   12 1
    16    9   13 1
    17   13   14 1
    18   14   15 1
    19   14   36 1
    20   14   37 1
    21   15   16 1
    22   15   17 1
    23   15   38 1
    24   16   21 1
    25   17   18 1
    26   17   19 1
    27   17   39 1
    28   18   40 1
    29   19   20 1
    30   19   21 1
    31   19   41 1
    32   20   42 1
    33   21   22 1
    34   21   43 1
    35   22   23 ar
    36   22   31 ar
    37   23   24 ar
    38   23   44 1
    39   24   25 ar
    40   25   26 ar
    41   25   31 ar
    42   26   27 1
    43   26   28 ar
    44   27   45 1
    45   27   46 1
    46   28   29 ar
    47   29   30 ar
    48   29   47 1
    49   30   31 ar
@<TRIPOS>SUBSTRUCTURE
     1 ACP         1 GROUP 0 A     ****
@<TRIPOS>MOLECULE
[[5-(6-aminopurin-9-yl)-3,4-dihydroxy-tetrahydrofuran-2-yl]methoxy-oxido-phosphoryl]oxy-(phosphonomethyl)phosphinate
   47    49     1     0     0
SMALL
USER_CHARGES

@<TRIPOS>ATOM
      1 PG         -4.3652    4.1274   -0.5215 P.3       1 ACP         1.6478
      2 O1G        -5.5356    3.5942    0.2486 O.2       1 ACP        -0.9103
      3 O2G        -4.5666    4.2082   -2.1225 O.3       1 ACP        -0.7989
      4 O3G        -2.9893    3.2977   -0.3535 O.3       1 ACP        -0.7989
      5 PB         -3.3560    6.2948    1.6265 P.3       1 ACP         1.4947
      6 O1B        -4.5073    5.9905    2.5567 O.co2     1 ACP        -0.8554
      7 O2B        -2.7352    7.6694    1.5332 O.co2     1 ACP        -0.8554
      8 C3B        -3.8864    5.8127   -0.0785 C.3       1 ACP        -0.6550
      9 PA         -0.7382    5.0055    1.0868 P.3       1 ACP         1.5921
     10 O1A         0.1355    6.1779    1.4774 O.co2     1 ACP        -0.8561
     11 O2A        -0.9749    4.6722   -0.3702 O.co2     1 ACP        -0.8561
     12 O3A        -2.1880    5.1734    1.8200 O.3       1 ACP        -0.8166
     13 O5'        -0.2059    3.6558    1.8419 O.3       1 ACP        -0.5737
     14 C5'        -0.8811    2.4285    1.6206 C.3       1 ACP         0.2197
     15 C4'        -0.1994    1.3333    2.4288 C.3       1 ACP         0.0944
     16 O4'        -1.1285    0.2356    2.5840 O.3       1 ACP        -0.4017
     17 C3'         1.0324    0.7610    1.7344 C.3       1 ACP         0.0859
     18 O3'         1.9175    0.2377    2.7247 O.3       1 ACP        -0.5941
     19 C2'         0.4468   -0.3802    0.9263 C.3       1 ACP         0.0924
     20 O2'         1.3993   -1.3703    0.5961 O.3       1 ACP        -0.5928
     21 C1'        -0.6159   -0.9100    1.8769 C.3       1 ACP         0.3967
     22 N9         -1.7127   -1.6108    1.2130 N.pl3     1 ACP        -0.6763
     23 C8         -1.7712   -2.9546    0.9544 C.ar      1 ACP         0.5586
     24 N7         -2.8883   -3.2948    0.3462 N.2       1 ACP        -0.5795
     25 C5         -3.5834   -2.1202    0.2043 C.ar      1 ACP        -0.2116
     26 C6         -4.8225   -1.8251   -0.3554 C.ar      1 ACP         0.7185
     27 N6         -5.6154   -2.8394   -0.9189 N.pl3     1 ACP        -0.9442
     28 N1         -5.2589   -0.5425   -0.3507 N.ar      1 ACP        -0.8040
     29 C2         -4.4510    0.3913    0.2069 C.ar      1 ACP         0.6560
     30 N3         -3.2368    0.2296    0.7767 N.ar      1 ACP        -0.7058
     31 C4         -2.8684   -1.0596    0.7376 C.ar      1 ACP         0.5729
     32 HOG2       -4.7533    3.3838   -2.6200 H         1 ACP         0.4440
     33 HOG3       -2.9685    2.3535   -0.6180 H         1 ACP         0.4440
     34 H3B1       -3.0615    6.1064   -0.7374 H         1 ACP         0.1084
     35 H3B2       -4.7359    6.4609   -0.3220 H         1 ACP         0.1084
     36 H5'1       -1.9255    2.5383    1.9294 H         1 ACP         0.0281
     37 H5'2       -0.8472    2.1934    0.5521 H         1 ACP         0.0281
     38 H4'         0.0403    1.7078    3.4343 H         1 ACP         0.1082
     39 H3'         1.5906    1.4859    1.1353 H         1 ACP         0.0650
     40 HO3'        2.1521    0.9800    3.3017 H         1 ACP         0.4300
     41 H2'        -0.0017    0.0018    0.0005 H         1 ACP         0.0785
     42 HO2'        1.7495   -1.7243    1.4324 H         1 ACP         0.4275
     43 H1'        -0.1998   -1.6319    2.6178 H         1 ACP         0.1009
     44 H8         -0.9745   -3.6312    1.2318 H         1 ACP         0.1067
     45 HN61       -5.2619   -3.7766   -0.9586 H         1 ACP         0.4213
     46 HN62       -6.4834   -2.5990   -1.3590 H         1 ACP         0.4213
     47 H2         -4.8317    1.4071    0.1930 H         1 ACP         0.0365
@<TRIPOS>BOND
     1    1    2 2
     2    1    3 1
     3    1    4 1
     4    1    8 1
     5    3   32 1
     6    4   33 1
     7    5    6 2
     8    5    7 1
     9    5    8 1
    10    5   12 1
    11    8   34 1
    12    8   35 1
    13    9   10 2
    14    9   11 1
    15    9   12 1
    16    9   13 1
    17   13   14 1
    18   14   15 1
    19   14   36 1
    20   14   37 1
    21   15   16 1
    22   15   17 1
    23   15   38 1
    24   16   21 1
    25   17   18 1
    26   17   19 1
    27   17   39 1
    28   18   40 1
    29   19   20 1
    30   19   21 1
    31   19   41 1
    32   20   42 1
    33   21   22 1
    34   21   43 1
    35   22   23 ar
    36   22   31 ar
    37   23   24 ar
    38   23   44 1
    39   24   25 ar
    40   25   26 ar
    41   25   31 ar
    42   26   27 1
    43   26   28 ar
    44   27   45 1
    45   27   46 1
    46   28   29 ar
    47   29   30 ar
    48   29   47 1
    49   30   31 ar
@<TRIPOS>SUBSTRUCTURE
     1 ACP         1 GROUP 0 A     ****
@<TRIPOS>MOLECULE
[[5-(6-aminopurin-9-yl)-3,4-dihydroxy-tetrahydrofuran-2-yl]methoxy-oxido-phosphoryl]oxy-(phosphonomethyl)phosphinate
   47    49     1     0     0
SMALL
USER_CHARGES

@<TRIPOS>ATOM
      1 PG         -0.4378    6.0088   -0.9482 P.3       1 ACP         1.6478
      2 O1G        -0.3799    5.4343   -2.3317 O.2       1 ACP        -0.9103
      3 O2G         0.5321    7.2729   -0.6806 O.3       1 ACP        -0.7989
      4 O3G        -0.0637    4.9845    0.2436 O.3       1 ACP        -0.7989
      5 PB         -3.5712    5.5536   -0.3969 P.3       1 ACP         1.4947
      6 O1B        -3.7922    5.0032   -1.7868 O.co2     1 ACP        -0.8554
      7 O2B        -4.6391    6.3227    0.3459 O.co2     1 ACP        -0.8554
      8 C3B        -2.0659    6.6260   -0.4647 C.3       1 ACP        -0.6550
      9 PA         -2.5401    4.4095    2.1396 P.3       1 ACP         1.5921
     10 O1A        -3.7865    4.6313    2.9690 O.co2     1 ACP        -0.8561
     11 O2A        -1.3389    5.3166    2.2956 O.co2     1 ACP        -0.8561
     12 O3A        -2.9654    4.3827    0.5629 O.3       1 ACP        -0.8166
     13 O5'        -2.0402    2.8619    2.3132 O.3       1 ACP        -0.5737
     14 C5'        -0.8811    2.4285    1.6206 C.3       1 ACP         0.2197
     15 C4'        -0.1994    1.3333    2.4288 C.3       1 ACP         0.0944
     16 O4'        -1.1285    0.2356    2.5840 O.3       1 ACP        -0.4017
     17 C3'         1.0324    0.7610    1.7344 C.3       1 ACP         0.0859
     18 O3'         1.9175    0.2377    2.7247 O.3       1 ACP        -0.5941
     19 C2'         0.4468   -0.3802    0.9263 C.3       1 ACP         0.0924
     20 O2'         1.3993   -1.3703    0.5961 O.3       1 ACP        -0.5928
     21 C1'        -0.6159   -0.9100    1.8769 C.3       1 ACP         0.3967
     22 N9         -1.7127   -1.6108    1.2130 N.pl3     1 ACP        -0.6763
     23 C8         -1.7712   -2.9546    0.9544 C.ar      1 ACP         0.5586
     24 N7         -2.8883   -3.2948    0.3462 N.2       1 ACP        -0.5795
     25 C5         -3.5834   -2.1202    0.2043 C.ar      1 ACP        -0.2116
     26 C6         -4.8225   -1.8251   -0.3554 C.ar      1 ACP         0.7185
     27 N6         -5.6154   -2.8394   -0.9189 N.pl3     1 ACP        -0.9442
     28 N1         -5.2589   -0.5425   -0.3507 N.ar      1 ACP        -0.8040
     29 C2         -4.4510    0.3913    0.2069 C.ar      1 ACP         0.6560
     30 N3         -3.2368    0.2296    0.7767 N.ar      1 ACP        -0.7058
     31 C4         -2.8684   -1.0596    0.7376 C.ar      1 ACP         0.5729
     32 HOG2        1.5001    7.1610   -0.7924 H         1 ACP         0.4440
     33 HOG3        0.8258    4.5713    0.2533 H         1 ACP         0.4440
     34 H3B1       -1.9705    7.0629    0.5357 H         1 ACP         0.1084
     35 H3B2       -2.3132    7.4457   -1.1489 H         1 ACP         0.1084
     36 H5'1       -1.1771    2.0504    0.6370 H         1 ACP         0.0281
     37 H5'2       -0.2083    3.2816    1.4878 H         1 ACP         0.0281
     38 H4'         0.0403    1.7078    3.4343 H         1 ACP         0.1082
     39 H3'         1.5906    1.4859    1.1353 H         1 ACP         0.0650
     40 HO3'        2.6839   -0.1150    2.2479 H         1 ACP         0.4300
     41 H2'        -0.0017    0.0018    0.0005 H         1 ACP         0.0785
     42 HO2'        0.9369   -2.0558    0.0825 H         1 ACP         0.4275
     43 H1'        -0.1998   -1.6319    2.6178 H         1 ACP         0.1009
     44 H8         -0.9745   -3.6312    1.2318 H         1 ACP         0.1067
     45 HN61       -5.2619   -3.7766   -0.9586 H         1 ACP         0.4213
     46 HN62       -6.4834   -2.5990   -1.3590 H         1 ACP         0.4213
     47 H2         -4.8317    1.4071    0.1930 H         1 ACP         0.0365
@<TRIPOS>BOND
     1    1    2 2
     2    1    3 1
     3    1    4 1
     4    1    8 1
     5    3   32 1
     6    4   33 1
     7    5    6 2
     8    5    7 1
     9    5    8 1
    10    5   12 1
    11    8   34 1
    12    8   35 1
    13    9   10 2
    14    9   11 1
    15    9   12 1
    16    9   13 1
    17   13   14 1
    18   14   15 1
    19   14   36 1
    20   14   37 1
    21   15   16 1
    22   15   17 1
    23   15   38 1
    24   16   21 1
    25   17   18 1
    26   17   19 1
    27   17   39 1
    28   18   40 1
    29   19   20 1
    30   19   21 1
    31   19   41 1
    32   20   42 1
    33   21   22 1
    34   21   43 1
    35   22   23 ar
    36   22   31 ar
    37   23   24 ar
    38   23   44 1
    39   24   25 ar
    40   25   26 ar
    41   25   31 ar
    42   26   27 1
    43   26   28 ar
    44   27   45 1
    45   27   46 1
    46   28   29 ar
    47   29   30 ar
    48   29   47 1
    49   30   31 ar
@<TRIPOS>SUBSTRUCTURE
     1 ACP         1 GROUP 0 A     ****
@<TRIPOS>MOLECULE
[[5-(6-aminopurin-9-yl)-3,4-dihydroxy-tetrahydrofuran-2-yl]methoxy-oxido-phosphoryl]oxy-(phosphonomethyl)phosphinate
   47    49     1     0     0
SMALL
USER_CHARGES

@<TRIPOS>ATOM
      1 PG         -2.8723    3.6011   -2.1575 P.3       1 ACP         1.6478
      2 O1G        -4.3181    3.3098   -1.8889 O.2       1 ACP        -0.9103
      3 O2G        -2.3652    3.2737   -3.6562 O.3       1 ACP        -0.7989
      4 O3G        -1.8205    2.8110   -1.2200 O.3       1 ACP        -0.7989
      5 PB         -2.5870    6.2227   -0.3203 P.3       1 ACP         1.4947
      6 O1B        -4.0529    6.1932    0.0456 O.co2     1 ACP        -0.8554
      7 O2B        -1.8080    7.5131   -0.4289 O.co2     1 ACP        -0.8554
      8 C3B        -2.4059    5.3322   -1.9312 C.3       1 ACP        -0.6550
      9 PA         -0.1841    4.7788    0.6530 P.3       1 ACP         1.5921
     10 O1A         0.5902    5.9920    1.1214 O.co2     1 ACP        -0.8561
     11 O2A         0.1754    4.0890   -0.6450 O.co2     1 ACP        -0.8561
     12 O3A        -1.7713    5.1620    0.6117 O.3       1 ACP        -0.8166
     13 O5'        -0.2059    3.6558    1.8419 O.3       1 ACP        -0.5737
     14 C5'        -0.8811    2.4285    1.6206 C.3       1 ACP         0.2197
     15 C4'        -0.1994    1.3333    2.4288 C.3       1 ACP         0.0944
     16 O4'        -1.1285    0.2356    2.5840 O.3       1 ACP        -0.4017
     17 C3'         1.0324    0.7610    1.7344 C.3       1 ACP         0.0859
     18 O3'         1.9175    0.2377    2.7247 O.3       1 ACP        -0.5941
     19 C2'         0.4468   -0.3802    0.9263 C.3       1 ACP         0.0924
     20 O2'         1.3993   -1.3703    0.5961 O.3       1 ACP        -0.5928
     21 C1'        -0.6159   -0.9100    1.8769 C.3       1 ACP         0.3967
     22 N9         -1.7127   -1.6108    1.2130 N.pl3     1 ACP        -0.6763
     23 C8         -2.8641   -1.0399    0.7392 C.ar      1 ACP         0.5586
     24 N7         -3.6659   -1.9257    0.1858 N.2       1 ACP        -0.5795
     25 C5         -3.0053   -3.1223    0.3069 C.ar      1 ACP        -0.2116
     26 C6         -3.3321   -4.4178   -0.0813 C.ar      1 ACP         0.7185
     27 N6         -4.5476   -4.6866   -0.7335 N.pl3     1 ACP        -0.9442
     28 N1         -2.4608   -5.4225    0.1773 N.ar      1 ACP        -0.8040
     29 C2         -1.3053   -5.1020    0.8081 C.ar      1 ACP         0.6560
     30 N3         -0.8788   -3.8921    1.2315 N.ar      1 ACP        -0.7058
     31 C4         -1.7870   -2.9477    0.9438 C.ar      1 ACP         0.5729
     32 HOG2       -2.4320    2.3539   -3.9900 H         1 ACP         0.4440
     33 HOG3       -1.8158    1.8302   -1.2330 H         1 ACP         0.4440
     34 H3B1       -1.3487    5.4285   -2.2034 H         1 ACP         0.1084
     35 H3B2       -2.9781    5.9157   -2.6615 H         1 ACP         0.1084
     36 H5'1       -1.9255    2.5383    1.9294 H         1 ACP         0.0281
     37 H5'2       -0.8472    2.1934    0.5521 H         1 ACP         0.0281
     38 H4'         0.0403    1.7078    3.4343 H         1 ACP         0.1082
     39 H3'         1.5906    1.4859    1.1353 H         1 ACP         0.0650
     40 HO3'        2.6839   -0.1150    2.2479 H         1 ACP         0.4300
     41 H2'        -0.0017    0.0018    0.0005 H         1 ACP         0.0785
     42 HO2'        2.0953   -0.9375    0.0709 H         1 ACP         0.4275
     43 H1'        -0.1998   -1.6319    2.6178 H         1 ACP         0.1009
     44 H8         -3.0609    0.0200    0.8250 H         1 ACP         0.1067
     45 HN61       -5.2046   -3.9433   -0.8775 H         1 ACP         0.4213
     46 HN62       -4.7849   -5.6332   -0.9625 H         1 ACP         0.4213
     47 H2         -0.6318   -5.9307    0.9993 H         1 ACP         0.0365
@<TRIPOS>BOND
     1    1    2 2
     2    1    3 1
     3    1    4 1
     4    1    8 1
     5    3   32 1
     6    4   33 1
     7    5    6 2
     8    5    7 1
     9    5    8 1
    10    5   12 1
    11    8   34 1
    12    8   35 1
    13    9   10 2
    14    9   11 1
    15    9   12 1
    16    9   13 1
    17   13   14 1
    18   14   15 1
    19   14   36 1
    20   14   37 1
    21   15   16 1
    22   15   17 1
    23   15   38 1
    24   16   21 1
    25   17   18 1
    26   17   19 1
    27   17   39 1
    28   18   40 1
    29   19   20 1
    30   19   21 1
    31   19   41 1
    32   20   42 1
    33   21   22 1
    34   21   43 1
    35   22   23 ar
    36   22   31 ar
    37   23   24 ar
    38   23   44 1
    39   24   25 ar
    40   25   26 ar
    41   25   31 ar
    42   26   27 1
    43   26   28 ar
    44   27   45 1
    45   27   46 1
    46   28   29 ar
    47   29   30 ar
    48   29   47 1
    49   30   31 ar
@<TRIPOS>SUBSTRUCTURE
     1 ACP         1 GROUP 0 A     ****
@<TRIPOS>MOLECULE
[[5-(6-aminopurin-9-yl)-3,4-dihydroxy-tetrahydrofuran-2-yl]methoxy-oxido-phosphoryl]oxy-(phosphonomethyl)phosphinate
   47    49     1     0     0
SMALL
USER_CHARGES

@<TRIPOS>ATOM
      1 PG          4.6559   -1.7551    3.4970 P.3       1 ACP         1.6478
      2 O1G         3.6767   -2.5418    4.3153 O.2       1 ACP        -0.9103
      3 O2G         6.0047   -1.3104    4.2672 O.3       1 ACP        -0.7989
      4 O3G         4.0932   -0.3694    2.8864 O.3       1 ACP        -0.7989
      5 PB          6.4955   -1.8782    0.8643 P.3       1 ACP         1.4947
      6 O1B         6.7656   -2.9040   -0.2119 O.co2     1 ACP        -0.8554
      7 O2B         7.6020   -1.2647    1.6907 O.co2     1 ACP        -0.8554
      8 C3B         5.2782   -2.6244    2.0401 C.3       1 ACP        -0.6550
      9 PA          5.7601    0.3295   -0.9773 P.3       1 ACP         1.5921
     10 O1A         5.8061   -0.4704   -2.2612 O.co2     1 ACP        -0.8561
     11 O2A         6.8856    1.2748   -0.6174 O.co2     1 ACP        -0.8561
     12 O3A         5.5350   -0.7029    0.2681 O.3       1 ACP        -0.8166
     13 O5'         4.3514    1.1573   -0.9028 O.3       1 ACP        -0.5737
     14 C5'         4.0922    1.9801    0.2227 C.3       1 ACP         0.2197
     15 C4'         2.5944    2.0310    0.4653 C.3       1 ACP         0.0944
     16 O4'         1.9327    2.5740   -0.6889 O.3       1 ACP        -0.4017
     17 C3'         1.9685    0.6634    0.6767 C.3       1 ACP         0.0859
     18 O3'         2.1425    0.1975    1.9977 O.3       1 ACP        -0.5941
     19 C2'         0.5176    0.9128    0.3099 C.3       1 ACP         0.0924
     20 O2'        -0.2103    1.4454    1.4152 O.3       1 ACP        -0.5928
     21 C1'         0.6219    1.9765   -0.7844 C.3       1 ACP         0.3967
     22 N9          0.4237    1.4496   -2.1357 N.pl3     1 ACP        -0.6763
     23 C8          1.4026    0.9717   -2.9660 C.ar      1 ACP         0.5586
     24 N7          0.9183    0.5619   -4.1197 N.2       1 ACP        -0.5795
     25 C5         -0.4330    0.7845   -4.0331 C.ar      1 ACP        -0.2116
     26 C6         -1.4794    0.5615   -4.9225 C.ar      1 ACP         0.7185
     27 N6         -1.2378    0.0044   -6.1899 N.pl3     1 ACP        -0.9442
     28 N1         -2.7406    0.8885   -4.5512 N.ar      1 ACP        -0.8040
     29 C2         -2.9113    1.4216   -3.3172 C.ar      1 ACP         0.6560
     30 N3         -1.9824    1.6843   -2.3721 N.ar      1 ACP        -0.7058
     31 C4         -0.7613    1.3370   -2.8054 C.ar      1 ACP         0.5729
     32 HOG2        5.9318   -0.7414    5.0628 H         1 ACP         0.4440
     33 HOG3        3.7685    0.3232    3.5002 H         1 ACP         0.4440
     34 H3B1        5.7354   -3.5595    2.3827 H         1 ACP         0.1084
     35 H3B2        4.4067   -2.8981    1.4345 H         1 ACP         0.1084
     36 H5'1        4.6070    1.5616    1.0933 H         1 ACP         0.0281
     37 H5'2        4.4825    2.9835    0.0251 H         1 ACP         0.0281
     38 H4'         2.3751    2.7029    1.3156 H         1 ACP         0.1082
     39 H3'         2.4336   -0.1217   -0.0015 H         1 ACP         0.0650
     40 HO3'        1.7160   -0.6716    2.0397 H         1 ACP         0.4300
     41 H2'         0.0316    0.0155   -0.0339 H         1 ACP         0.0785
     42 HO2'       -0.1608    0.7921    2.1351 H         1 ACP         0.4275
     43 H1'        -0.1474    2.7798   -0.6651 H         1 ACP         0.1009
     44 H8          2.4442    0.9470   -2.6763 H         1 ACP         0.1067
     45 HN61       -0.2955   -0.1901   -6.4713 H         1 ACP         0.4213
     46 HN62       -1.9987   -0.1045   -6.8334 H         1 ACP         0.4213
     47 H2         -3.9335    1.6716   -3.0534 H         1 ACP         0.0365
@<TRIPOS>BOND
     1    1    2 2
     2    1    3 1
     3    1    4 1
     4    1    8 1
     5    3   32 1
     6    4   33 1
     7    5    6 2
     8    5    7 1
     9    5    8 1
    10    5   12 1
    11    8   34 1
    12    8   35 1
    13    9   10 2
    14    9   11 1
    15    9   12 1
    16    9   13 1
    17   13   14 1
    18   14   15 1
    19   14   36 1
    20   14   37 1
    21   15   16 1
    22   15   17 1
    23   15   38 1
    24   16   21 1
    25   17   18 1
    26   17   19 1
    27   17   39 1
    28   18   40 1
    29   19   20 1
    30   19   21 1
    31   19   41 1
    32   20   42 1
    33   21   22 1
    34   21   43 1
    35   22   23 ar
    36   22   31 ar
    37   23   24 ar
    38   23   44 1
    39   24   25 ar
    40   25   26 ar
    41   25   31 ar
    42   26   27 1
    43   26   28 ar
    44   27   45 1
    45   27   46 1
    46   28   29 ar
    47   29   30 ar
    48   29   47 1
    49   30   31 ar
@<TRIPOS>SUBSTRUCTURE
     1 ACP         1 GROUP 0 A     ****
@<TRIPOS>MOLECULE
[[5-(6-aminopurin-9-yl)-3,4-dihydroxy-tetrahydrofuran-2-yl]methoxy-oxido-phosphoryl]oxy-(phosphonomethyl)phosphinate
   47    49     1     0     0
SMALL
USER_CHARGES

@<TRIPOS>ATOM
      1 PG          5.2534    2.6076   -4.9444 P.3       1 ACP         1.6478
      2 O1G         4.0899    2.8388   -4.0278 O.2       1 ACP        -0.9103
      3 O2G         5.9008    3.9381   -5.5931 O.3       1 ACP        -0.7989
      4 O3G         4.9513    1.6697   -6.2244 O.3       1 ACP        -0.7989
      5 PB          7.5731    2.5172   -2.7216 P.3       1 ACP         1.4947
      6 O1B         8.1212    3.8555   -3.1597 O.co2     1 ACP        -0.8554
      7 O2B         8.4562    1.4295   -2.1553 O.co2     1 ACP        -0.8554
      8 C3B         6.6674    1.7967   -4.1643 C.3       1 ACP        -0.6550
      9 PA          6.1592    3.5244   -0.3148 P.3       1 ACP         1.5921
     10 O1A         6.4205    4.9975   -0.5432 O.co2     1 ACP        -0.8561
     11 O2A         6.9491    2.7529    0.7199 O.co2     1 ACP        -0.8561
     12 O3A         6.2869    2.7480   -1.7461 O.3       1 ACP        -0.8166
     13 O5'         4.5669    3.2941   -0.0211 O.3       1 ACP        -0.5737
     14 C5'         4.0922    1.9801    0.2227 C.3       1 ACP         0.2197
     15 C4'         2.5944    2.0310    0.4653 C.3       1 ACP         0.0944
     16 O4'         1.9327    2.5740   -0.6889 O.3       1 ACP        -0.4017
     17 C3'         1.9685    0.6634    0.6767 C.3       1 ACP         0.0859
     18 O3'         2.1425    0.1975    1.9977 O.3       1 ACP        -0.5941
     19 C2'         0.5176    0.9128    0.3099 C.3       1 ACP         0.0924
     20 O2'        -0.2103    1.4454    1.4152 O.3       1 ACP        -0.5928
     21 C1'         0.6219    1.9765   -0.7844 C.3       1 ACP         0.3967
     22 N9          0.4237    1.4496   -2.1357 N.pl3     1 ACP        -0.6763
     23 C8         -0.7736    1.3475   -2.7932 C.ar      1 ACP         0.5586
     24 N7         -0.6356    0.8373   -3.9991 N.2       1 ACP        -0.5795
     25 C5          0.7095    0.5981   -4.1281 C.ar      1 ACP        -0.2116
     26 C6          1.4733    0.0704   -5.1643 C.ar      1 ACP         0.7185
     27 N6          0.8693   -0.3355   -6.3666 N.pl3     1 ACP        -0.9442
     28 N1          2.8130   -0.0482   -5.0009 N.ar      1 ACP        -0.8040
     29 C2          3.3380    0.3602   -3.8204 C.ar      1 ACP         0.6560
     30 N3          2.7052    0.8841   -2.7480 N.ar      1 ACP        -0.7058
     31 C4          1.3867    0.9726   -2.9785 C.ar      1 ACP         0.5729
     32 HOG2        5.3389    4.5158   -6.1522 H         1 ACP         0.4440
     33 HOG3        4.2642    1.9487   -6.8664 H         1 ACP         0.4440
     34 H3B1        6.3411    0.8021   -3.8399 H         1 ACP         0.1084
     35 H3B2        7.4210    1.6465   -4.9458 H         1 ACP         0.1084
     36 H5'1        4.3181    1.3551   -0.6470 H         1 ACP         0.0281
     37 H5'2        4.6085    1.5740    1.0982 H         1 ACP         0.0281
     38 H4'         2.3751    2.7029    1.3156 H         1 ACP         0.1082
     39 H3'         2.4336   -0.1217   -0.0015 H         1 ACP         0.0650
     40 HO3'        1.7160   -0.6716    2.0397 H         1 ACP         0.4300
     41 H2'         0.0316    0.0155   -0.0339 H         1 ACP         0.0785
     42 HO2'       -0.1608    0.7921    2.1351 H         1 ACP         0.4275
     43 H1'        -0.1474    2.7798   -0.6651 H         1 ACP         0.1009
     44 H8         -1.7070    1.6599   -2.3451 H         1 ACP         0.1067
     45 HN61        1.4426   -0.6691   -7.1181 H         1 ACP         0.4213
     46 HN62       -0.1156   -0.1989   -6.4937 H         1 ACP         0.4213
     47 H2          4.4130    0.2505   -3.7241 H         1 ACP         0.0365
@<TRIPOS>BOND
     1    1    2 2
     2    1    3 1
     3    1    4 1
     4    1    8 1
     5    3   32 1
     6    4   33 1
     7    5    6 2
     8    5    7 1
     9    5    8 1
    10    5   12 1
    11    8   34 1
    12    8   35 1
    13    9   10 2
    14    9   11 1
    15    9   12 1
    16    9   13 1
    17   13   14 1
    18   14   15 1
    19   14   36 1
    20   14   37 1
    21   15   16 1
    22   15   17 1
    23   15   38 1
    24   16   21 1
    25   17   18 1
    26   17   19 1
    27   17   39 1
    28   18   40 1
    29   19   20 1
    30   19   21 1
    31   19   41 1
    32   20   42 1
    33   21   22 1
    34   21   43 1
    35   22   23 ar
    36   22   31 ar
    37   23   24 ar
    38   23   44 1
    39   24   25 ar
    40   25   26 ar
    41   25   31 ar
    42   26   27 1
    43   26   28 ar
    44   27   45 1
    45   27   46 1
    46   28   29 ar
    47   29   30 ar
    48   29   47 1
    49   30   31 ar
@<TRIPOS>SUBSTRUCTURE
     1 ACP         1 GROUP 0 A     ****
@<TRIPOS>MOLECULE
[[5-(6-aminopurin-9-yl)-3,4-dihydroxy-tetrahydrofuran-2-yl]methoxy-oxido-phosphoryl]oxy-(phosphonomethyl)phosphinate
   47    49     1     0     0
SMALL
USER_CHARGES

@<TRIPOS>ATOM
      1 PG          6.2865    5.3362   -4.5958 P.3       1 ACP         1.6478
      2 O1G         7.4418    4.7883   -3.8132 O.2       1 ACP        -0.9103
      3 O2G         6.0240    4.6359   -6.0279 O.3       1 ACP        -0.7989
      4 O3G         6.3756    6.9091   -4.9533 O.3       1 ACP        -0.7989
      5 PB          3.9551    3.5706   -3.2629 P.3       1 ACP         1.4947
      6 O1B         3.7841    2.7480   -4.5189 O.co2     1 ACP        -0.8554
      7 O2B         2.8046    3.8662   -2.3288 O.co2     1 ACP        -0.8554
      8 C3B         4.6881    5.1927   -3.7652 C.3       1 ACP        -0.6550
      9 PA          5.8654    3.5047   -0.9930 P.3       1 ACP         1.5921
     10 O1A         6.1794    4.9814   -1.0996 O.co2     1 ACP        -0.8561
     11 O2A         6.9343    2.5175   -0.5774 O.co2     1 ACP        -0.8561
     12 O3A         5.2269    3.0075   -2.4116 O.3       1 ACP        -0.8166
     13 O5'         4.5669    3.2941   -0.0211 O.3       1 ACP        -0.5737
     14 C5'         4.0922    1.9801    0.2227 C.3       1 ACP         0.2197
     15 C4'         2.5944    2.0310    0.4653 C.3       1 ACP         0.0944
     16 O4'         1.9327    2.5740   -0.6889 O.3       1 ACP        -0.4017
     17 C3'         1.9685    0.6634    0.6767 C.3       1 ACP         0.0859
     18 O3'         2.1425    0.1975    1.9977 O.3       1 ACP        -0.5941
     19 C2'         0.5176    0.9128    0.3099 C.3       1 ACP         0.0924
     20 O2'        -0.2103    1.4454    1.4152 O.3       1 ACP        -0.5928
     21 C1'         0.6219    1.9765   -0.7844 C.3       1 ACP         0.3967
     22 N9          0.4237    1.4496   -2.1357 N.pl3     1 ACP        -0.6763
     23 C8          1.4026    0.9717   -2.9660 C.ar      1 ACP         0.5586
     24 N7          0.9183    0.5619   -4.1197 N.2       1 ACP        -0.5795
     25 C5         -0.4330    0.7845   -4.0331 C.ar      1 ACP        -0.2116
     26 C6         -1.4794    0.5615   -4.9225 C.ar      1 ACP         0.7185
     27 N6         -1.2378    0.0044   -6.1899 N.pl3     1 ACP        -0.9442
     28 N1         -2.7406    0.8885   -4.5512 N.ar      1 ACP        -0.8040
     29 C2         -2.9113    1.4216   -3.3172 C.ar      1 ACP         0.6560
     30 N3         -1.9824    1.6843   -2.3721 N.ar      1 ACP        -0.7058
     31 C4         -0.7613    1.3370   -2.8054 C.ar      1 ACP         0.5729
     32 HOG2        6.7327    4.6601   -6.7056 H         1 ACP         0.4440
     33 HOG3        7.1307    7.2326   -5.4893 H         1 ACP         0.4440
     34 H3B1        4.7370    5.7902   -2.8479 H         1 ACP         0.1084
     35 H3B2        3.9455    5.6676   -4.4165 H         1 ACP         0.1084
     36 H5'1        4.3181    1.3551   -0.6470 H         1 ACP         0.0281
     37 H5'2        4.6085    1.5740    1.0982 H         1 ACP         0.0281
     38 H4'         2.3751    2.7029    1.3156 H         1 ACP         0.1082
     39 H3'         2.4336   -0.1217   -0.0015 H         1 ACP         0.0650
     40 HO3'        3.0987    0.1465    2.1461 H         1 ACP         0.4300
     41 H2'         0.0316    0.0155   -0.0339 H         1 ACP         0.0785
     42 HO2'       -1.1270    1.5823    1.1180 H         1 ACP         0.4275
     43 H1'        -0.1474    2.7798   -0.6651 H         1 ACP         0.1009
     44 H8          2.4442    0.9470   -2.6763 H         1 ACP         0.1067
     45 HN61       -2.0105   -0.1920   -6.7974 H         1 ACP         0.4213
     46 HN62       -0.3075   -0.2773   -6.4350 H         1 ACP         0.4213
     47 H2         -3.9335    1.6716   -3.0534 H         1 ACP         0.0365
@<TRIPOS>BOND
     1    1    2 2
     2    1    3 1
     3    1    4 1
     4    1    8 1
     5    3   32 1
     6    4   33 1
     7    5    6 2
     8    5    7 1
     9    5    8 1
    10    5   12 1
    11    8   34 1
    12    8   35 1
    13    9   10 2
    14    9   11 1
    15    9   12 1
    16    9   13 1
    17   13   14 1
    18   14   15 1
    19   14   36 1
    20   14   37 1
    21   15   16 1
    22   15   17 1
    23   15   38 1
    24   16   21 1
    25   17   18 1
    26   17   19 1
    27   17   39 1
    28   18   40 1
    29   19   20 1
    30   19   21 1
    31   19   41 1
    32   20   42 1
    33   21   22 1
    34   21   43 1
    35   22   23 ar
    36   22   31 ar
    37   23   24 ar
    38   23   44 1
    39   24   25 ar
    40   25   26 ar
    41   25   31 ar
    42   26   27 1
    43   26   28 ar
    44   27   45 1
    45   27   46 1
    46   28   29 ar
    47   29   30 ar
    48   29   47 1
    49   30   31 ar
@<TRIPOS>SUBSTRUCTURE
     1 ACP         1 GROUP 0 A     ****
@<TRIPOS>MOLECULE
[[5-(6-aminopurin-9-yl)-3,4-dihydroxy-tetrahydrofuran-2-yl]methoxy-oxido-phosphoryl]oxy-(phosphonomethyl)phosphinate
   47    49     1     0     0
SMALL
USER_CHARGES

@<TRIPOS>ATOM
      1 PG         -4.8159    6.2974   -1.5933 P.3       1 ACP         1.6478
      2 O1G        -4.9910    6.6501   -3.0398 O.2       1 ACP        -0.9103
      3 O2G        -6.0879    6.6036   -0.6454 O.3       1 ACP        -0.7989
      4 O3G        -3.5948    7.0414   -0.8416 O.3       1 ACP        -0.7989
      5 PB         -4.2277    3.8513    0.4069 P.3       1 ACP         1.4947
      6 O1B        -3.9781    2.3693    0.2492 O.co2     1 ACP        -0.8554
      7 O2B        -5.3284    4.3952    1.2879 O.co2     1 ACP        -0.8554
      8 C3B        -4.4829    4.5478   -1.2874 C.3       1 ACP        -0.6550
      9 PA         -2.0037    4.7529    2.1525 P.3       1 ACP         1.5921
     10 O1A        -2.9381    5.3267    3.1957 O.co2     1 ACP        -0.8561
     11 O2A        -0.6728    5.4124    1.8637 O.co2     1 ACP        -0.8561
     12 O3A        -2.8235    4.6072    0.7474 O.3       1 ACP        -0.8166
     13 O5'        -1.7337    3.1724    2.4754 O.3       1 ACP        -0.5737
     14 C5'        -0.8811    2.4285    1.6206 C.3       1 ACP         0.2197
     15 C4'        -0.1994    1.3333    2.4288 C.3       1 ACP         0.0944
     16 O4'        -1.1285    0.2356    2.5840 O.3       1 ACP        -0.4017
     17 C3'         1.0324    0.7610    1.7344 C.3       1 ACP         0.0859
     18 O3'         1.9175    0.2377    2.7247 O.3       1 ACP        -0.5941
     19 C2'         0.4468   -0.3802    0.9263 C.3       1 ACP         0.0924
     20 O2'         1.3993   -1.3703    0.5961 O.3       1 ACP        -0.5928
     21 C1'        -0.6159   -0.9100    1.8769 C.3       1 ACP         0.3967
     22 N9         -1.7127   -1.6108    1.2130 N.pl3     1 ACP        -0.6763
     23 C8         -2.0877   -2.9101    1.4304 C.ar      1 ACP         0.5586
     24 N7         -3.1152   -3.2613    0.6857 N.2       1 ACP        -0.5795
     25 C5         -3.4186   -2.1409   -0.0462 C.ar      1 ACP        -0.2116
     26 C6         -4.3953   -1.8809   -1.0023 C.ar      1 ACP         0.7185
     27 N6         -5.3118   -2.8767   -1.3812 N.pl3     1 ACP        -0.9442
     28 N1         -4.4538   -0.6507   -1.5667 N.ar      1 ACP        -0.8040
     29 C2         -3.5442    0.2679   -1.1609 C.ar      1 ACP         0.6560
     30 N3         -2.5561    0.1361   -0.2491 N.ar      1 ACP        -0.7058
     31 C4         -2.5568   -1.1019    0.2674 C.ar      1 ACP         0.5729
     32 HOG2       -6.4141    7.5256   -0.5712 H         1 ACP         0.4440
     33 HOG3       -3.5927    8.0210   -0.7935 H         1 ACP         0.4440
     34 H3B1       -5.3092    3.9729   -1.7204 H         1 ACP         0.1084
     35 H3B2       -3.5820    4.2897   -1.8557 H         1 ACP         0.1084
     36 H5'1       -1.4802    1.9929    0.8148 H         1 ACP         0.0281
     37 H5'2       -0.1370    3.1043    1.1873 H         1 ACP         0.0281
     38 H4'         0.0403    1.7078    3.4343 H         1 ACP         0.1082
     39 H3'         1.5906    1.4859    1.1353 H         1 ACP         0.0650
     40 HO3'        2.1521    0.9800    3.3017 H         1 ACP         0.4300
     41 H2'        -0.0017    0.0018    0.0005 H         1 ACP         0.0785
     42 HO2'        0.9369   -2.0558    0.0825 H         1 ACP         0.4275
     43 H1'        -0.1998   -1.6319    2.6178 H         1 ACP         0.1009
     44 H8         -1.5778   -3.5473    2.1399 H         1 ACP         0.1067
     45 HN61       -5.2294   -3.7965   -0.9914 H         1 ACP         0.4213
     46 HN62       -5.9774   -2.6837   -2.1055 H         1 ACP         0.4213
     47 H2         -3.6201    1.2414   -1.6336 H         1 ACP         0.0365
@<TRIPOS>BOND
     1    1    2 2
     2    1    3 1
     3    1    4 1
     4    1    8 1
     5    3   32 1
     6    4   33 1
     7    5    6 2
     8    5    7 1
     9    5    8 1
    10    5   12 1
    11    8   34 1
    12    8   35 1
    13    9   10 2
    14    9   11 1
    15    9   12 1
    16    9   13 1
    17   13   14 1
    18   14   15 1
    19   14   36 1
    20   14   37 1
    21   15   16 1
    22   15   17 1
    23   15   38 1
    24   16   21 1
    25   17   18 1
    26   17   19 1
    27   17   39 1
    28   18   40 1
    29   19   20 1
    30   19   21 1
    31   19   41 1
    32   20   42 1
    33   21   22 1
    34   21   43 1
    35   22   23 ar
    36   22   31 ar
    37   23   24 ar
    38   23   44 1
    39   24   25 ar
    40   25   26 ar
    41   25   31 ar
    42   26   27 1
    43   26   28 ar
    44   27   45 1
    45   27   46 1
    46   28   29 ar
    47   29   30 ar
    48   29   47 1
    49   30   31 ar
@<TRIPOS>SUBSTRUCTURE
     1 ACP         1 GROUP 0 A     ****
@<TRIPOS>MOLECULE
[[5-(6-aminopurin-9-yl)-3,4-dihydroxy-tetrahydrofuran-2-yl]methoxy-oxido-phosphoryl]oxy-(phosphonomethyl)phosphinate
   47    49     1     0     0
SMALL
USER_CHARGES

@<TRIPOS>ATOM
      1 PG         -0.1985   -2.2650   -3.6384 P.3       1 ACP         1.6478
      2 O1G        -0.1632   -3.0739   -2.3767 O.2       1 ACP        -0.9103
      3 O2G         0.8196   -2.7432   -4.7981 O.3       1 ACP        -0.7989
      4 O3G         0.1359   -0.6942   -3.4639 O.3       1 ACP        -0.7989
      5 PB         -3.3471   -1.6212   -3.6784 P.3       1 ACP         1.4947
      6 O1B        -3.5895   -2.4553   -2.4419 O.co2     1 ACP        -0.8554
      7 O2B        -4.3843   -1.4717   -4.7673 O.co2     1 ACP        -0.8554
      8 C3B        -1.8014   -2.2544   -4.4726 C.3       1 ACP        -0.6550
      9 PA         -2.3605    1.1374   -4.1504 P.3       1 ACP         1.5921
     10 O1A        -3.5972    1.6656   -4.8447 O.co2     1 ACP        -0.8561
     11 O2A        -1.1251    0.7757   -4.9460 O.co2     1 ACP        -0.8561
     12 O3A        -2.7869   -0.1527   -3.2440 O.3       1 ACP        -0.8166
     13 O5'        -1.9208    2.1717   -2.9622 O.3       1 ACP        -0.5737
     14 C5'        -0.7794    1.8744   -2.1748 C.3       1 ACP         0.2197
     15 C4'        -0.9699    2.4597   -0.7819 C.3       1 ACP         0.0944
     16 O4'        -2.1475    1.8640   -0.2014 O.3       1 ACP        -0.4017
     17 C3'         0.1697    2.1347    0.1695 C.3       1 ACP         0.0859
     18 O3'         0.1809    3.0982    1.2223 O.3       1 ACP        -0.5941
     19 C2'        -0.2543    0.7880    0.7187 C.3       1 ACP         0.0924
     20 O2'         0.3606    0.4944    1.9582 O.3       1 ACP        -0.5928
     21 C1'        -1.7682    0.9516    0.8548 C.3       1 ACP         0.3967
     22 N9         -2.5926   -0.2553    0.7436 N.pl3     1 ACP        -0.6763
     23 C8         -3.5599   -0.4866   -0.1983 C.ar      1 ACP         0.5586
     24 N7         -4.1294   -1.6639   -0.0461 N.2       1 ACP        -0.5795
     25 C5         -3.5041   -2.2191    1.0420 C.ar      1 ACP        -0.2116
     26 C6         -3.6604   -3.4390    1.6925 C.ar      1 ACP         0.7185
     27 N6         -4.6108   -4.3735    1.2468 N.pl3     1 ACP        -0.9442
     28 N1         -2.8820   -3.7179    2.7657 N.ar      1 ACP        -0.8040
     29 C2         -1.9837   -2.7784    3.1481 C.ar      1 ACP         0.6560
     30 N3         -1.7408   -1.5668    2.6022 N.ar      1 ACP        -0.7058
     31 C4         -2.5438   -1.3578    1.5483 C.ar      1 ACP         0.5729
     32 HOG2        1.7825   -2.7502   -4.6117 H         1 ACP         0.4440
     33 HOG3        1.0088   -0.4316   -3.1016 H         1 ACP         0.4440
     34 H3B1       -1.6891   -1.6785   -5.3982 H         1 ACP         0.1084
     35 H3B2       -2.0170   -3.2887   -4.7642 H         1 ACP         0.1084
     36 H5'1       -0.6602    0.7877   -2.1203 H         1 ACP         0.0281
     37 H5'2        0.1041    2.3072   -2.6545 H         1 ACP         0.0281
     38 H4'        -1.1469    3.5409   -0.8522 H         1 ACP         0.1082
     39 H3'         1.1601    2.1310   -0.2934 H         1 ACP         0.0650
     40 HO3'        0.9173    2.8584    1.8048 H         1 ACP         0.4300
     41 H2'        -0.0024   -0.0091    0.0062 H         1 ACP         0.0785
     42 HO2'        1.3225    0.4909    1.8095 H         1 ACP         0.4275
     43 H1'        -2.0584    1.4255    1.8301 H         1 ACP         0.1009
     44 H8         -3.8030    0.2355   -0.9657 H         1 ACP         0.1067
     45 HN61       -4.6753   -5.2653    1.6999 H         1 ACP         0.4213
     46 HN62       -5.1476   -4.1759    0.4235 H         1 ACP         0.4213
     47 H2         -1.3778   -3.0348    4.0107 H         1 ACP         0.0365
@<TRIPOS>BOND
     1    1    2 2
     2    1    3 1
     3    1    4 1
     4    1    8 1
     5    3   32 1
     6    4   33 1
     7    5    6 2
     8    5    7 1
     9    5    8 1
    10    5   12 1
    11    8   34 1
    12    8   35 1
    13    9   10 2
    14    9   11 1
    15    9   12 1
    16    9   13 1
    17   13   14 1
    18   14   15 1
    19   14   36 1
    20   14   37 1
    21   15   16 1
    22   15   17 1
    23   15   38 1
    24   16   21 1
    25   17   18 1
    26   17   19 1
    27   17   39 1
    28   18   40 1
    29   19   20 1
    30   19   21 1
    31   19   41 1
    32   20   42 1
    33   21   22 1
    34   21   43 1
    35   22   23 ar
    36   22   31 ar
    37   23   24 ar
    38   23   44 1
    39   24   25 ar
    40   25   26 ar
    41   25   31 ar
    42   26   27 1
    43   26   28 ar
    44   27   45 1
    45   27   46 1
    46   28   29 ar
    47   29   30 ar
    48   29   47 1
    49   30   31 ar
@<TRIPOS>SUBSTRUCTURE
     1 ACP         1 GROUP 0 A     ****
@<TRIPOS>MOLECULE
[[5-(6-aminopurin-9-yl)-3,4-dihydroxy-tetrahydrofuran-2-yl]methoxy-oxido-phosphoryl]oxy-(phosphonomethyl)phosphinate
   47    49     1     0     0
SMALL
USER_CHARGES

@<TRIPOS>ATOM
      1 PG          2.4861    5.3053    1.6087 P.3       1 ACP         1.6478
      2 O1G         2.7273    5.5462    0.1488 O.2       1 ACP        -0.9103
      3 O2G         3.8120    5.2410    2.5297 O.3       1 ACP        -0.7989
      4 O3G         1.7093    3.9346    1.9657 O.3       1 ACP        -0.7989
      5 PB         -0.2497    6.9669    1.8986 P.3       1 ACP         1.4947
      6 O1B        -0.1935    7.4173    0.4572 O.co2     1 ACP        -0.8554
      7 O2B        -0.8623    7.8179    2.9869 O.co2     1 ACP        -0.8554
      8 C3B         1.4809    6.5707    2.4172 C.3       1 ACP        -0.6550
      9 PA         -1.1366    4.4807    3.2544 P.3       1 ACP         1.5921
     10 O1A        -2.2266    5.1034    4.0998 O.co2     1 ACP        -0.8561
     11 O2A         0.1933    4.1013    3.8686 O.co2     1 ACP        -0.8561
     12 O3A        -0.8547    5.4545    1.9738 O.3       1 ACP        -0.8166
     13 O5'        -1.7337    3.1724    2.4754 O.3       1 ACP        -0.5737
     14 C5'        -0.8811    2.4285    1.6206 C.3       1 ACP         0.2197
     15 C4'        -0.1994    1.3333    2.4288 C.3       1 ACP         0.0944
     16 O4'        -1.1285    0.2356    2.5840 O.3       1 ACP        -0.4017
     17 C3'         1.0324    0.7610    1.7344 C.3       1 ACP         0.0859
     18 O3'         1.9175    0.2377    2.7247 O.3       1 ACP        -0.5941
     19 C2'         0.4468   -0.3802    0.9263 C.3       1 ACP         0.0924
     20 O2'         1.3993   -1.3703    0.5961 O.3       1 ACP        -0.5928
     21 C1'        -0.6159   -0.9100    1.8769 C.3       1 ACP         0.3967
     22 N9         -1.7127   -1.6108    1.2130 N.pl3     1 ACP        -0.6763
     23 C8         -2.8641   -1.0399    0.7392 C.ar      1 ACP         0.5586
     24 N7         -3.6659   -1.9257    0.1858 N.2       1 ACP        -0.5795
     25 C5         -3.0053   -3.1223    0.3069 C.ar      1 ACP        -0.2116
     26 C6         -3.3321   -4.4178   -0.0813 C.ar      1 ACP         0.7185
     27 N6         -4.5476   -4.6866   -0.7335 N.pl3     1 ACP        -0.9442
     28 N1         -2.4608   -5.4225    0.1773 N.ar      1 ACP        -0.8040
     29 C2         -1.3053   -5.1020    0.8081 C.ar      1 ACP         0.6560
     30 N3         -0.8788   -3.8921    1.2315 N.ar      1 ACP        -0.7058
     31 C4         -1.7870   -2.9477    0.9438 C.ar      1 ACP         0.5729
     32 HOG2        4.4892    4.5573    2.3404 H         1 ACP         0.4440
     33 HOG3        2.1097    3.0790    1.7019 H         1 ACP         0.4440
     34 H3B1        1.4179    6.3139    3.4806 H         1 ACP         0.1084
     35 H3B2        2.0368    7.5128    2.3485 H         1 ACP         0.1084
     36 H5'1       -1.4802    1.9929    0.8148 H         1 ACP         0.0281
     37 H5'2       -0.1370    3.1043    1.1873 H         1 ACP         0.0281
     38 H4'         0.0403    1.7078    3.4343 H         1 ACP         0.1082
     39 H3'         1.5906    1.4859    1.1353 H         1 ACP         0.0650
     40 HO3'        2.6839   -0.1150    2.2479 H         1 ACP         0.4300
     41 H2'        -0.0017    0.0018    0.0005 H         1 ACP         0.0785
     42 HO2'        2.0953   -0.9375    0.0709 H         1 ACP         0.4275
     43 H1'        -0.1998   -1.6319    2.6178 H         1 ACP         0.1009
     44 H8         -3.0609    0.0200    0.8250 H         1 ACP         0.1067
     45 HN61       -5.2046   -3.9433   -0.8775 H         1 ACP         0.4213
     46 HN62       -4.7849   -5.6332   -0.9625 H         1 ACP         0.4213
     47 H2         -0.6318   -5.9307    0.9993 H         1 ACP         0.0365
@<TRIPOS>BOND
     1    1    2 2
     2    1    3 1
     3    1    4 1
     4    1    8 1
     5    3   32 1
     6    4   33 1
     7    5    6 2
     8    5    7 1
     9    5    8 1
    10    5   12 1
    11    8   34 1
    12    8   35 1
    13    9   10 2
    14    9   11 1
    15    9   12 1
    16    9   13 1
    17   13   14 1
    18   14   15 1
    19   14   36 1
    20   14   37 1
    21   15   16 1
    22   15   17 1
    23   15   38 1
    24   16   21 1
    25   17   18 1
    26   17   19 1
    27   17   39 1
    28   18   40 1
    29   19   20 1
    30   19   21 1
    31   19   41 1
    32   20   42 1
    33   21   22 1
    34   21   43 1
    35   22   23 ar
    36   22   31 ar
    37   23   24 ar
    38   23   44 1
    39   24   25 ar
    40   25   26 ar
    41   25   31 ar
    42   26   27 1
    43   26   28 ar
    44   27   45 1
    45   27   46 1
    46   28   29 ar
    47   29   30 ar
    48   29   47 1
    49   30   31 ar
@<TRIPOS>SUBSTRUCTURE
     1 ACP         1 GROUP 0 A     ****
@<TRIPOS>MOLECULE
[[5-(6-aminopurin-9-yl)-3,4-dihydroxy-tetrahydrofuran-2-yl]methoxy-oxido-phosphoryl]oxy-(phosphonomethyl)phosphinate
   47    49     1     0     0
SMALL
USER_CHARGES

@<TRIPOS>ATOM
      1 PG          3.6294   -3.1673    1.5379 P.3       1 ACP         1.6478
      2 O1G         2.8031   -3.7436    2.6481 O.2       1 ACP        -0.9103
      3 O2G         3.0112   -1.8587    0.8199 O.3       1 ACP        -0.7989
      4 O3G         3.9308   -4.1689    0.3067 O.3       1 ACP        -0.7989
      5 PB          6.4955   -1.8782    0.8643 P.3       1 ACP         1.4947
      6 O1B         6.7656   -2.9040   -0.2119 O.co2     1 ACP        -0.8554
      7 O2B         7.6020   -1.2647    1.6907 O.co2     1 ACP        -0.8554
      8 C3B         5.2782   -2.6244    2.0401 C.3       1 ACP        -0.6550
      9 PA          5.7601    0.3295   -0.9773 P.3       1 ACP         1.5921
     10 O1A         5.8061   -0.4704   -2.2612 O.co2     1 ACP        -0.8561
     11 O2A         6.8856    1.2748   -0.6174 O.co2     1 ACP        -0.8561
     12 O3A         5.5350   -0.7029    0.2681 O.3       1 ACP        -0.8166
     13 O5'         4.3514    1.1573   -0.9028 O.3       1 ACP        -0.5737
     14 C5'         4.0922    1.9801    0.2227 C.3       1 ACP         0.2197
     15 C4'         2.5944    2.0310    0.4653 C.3       1 ACP         0.0944
     16 O4'         1.9327    2.5740   -0.6889 O.3       1 ACP        -0.4017
     17 C3'         1.9685    0.6634    0.6767 C.3       1 ACP         0.0859
     18 O3'         2.1425    0.1975    1.9977 O.3       1 ACP        -0.5941
     19 C2'         0.5176    0.9128    0.3099 C.3       1 ACP         0.0924
     20 O2'        -0.2103    1.4454    1.4152 O.3       1 ACP        -0.5928
     21 C1'         0.6219    1.9765   -0.7844 C.3       1 ACP         0.3967
     22 N9          0.4237    1.4496   -2.1357 N.pl3     1 ACP        -0.6763
     23 C8          1.4026    0.9717   -2.9660 C.ar      1 ACP         0.5586
     24 N7          0.9183    0.5619   -4.1197 N.2       1 ACP        -0.5795
     25 C5         -0.4330    0.7845   -4.0331 C.ar      1 ACP        -0.2116
     26 C6         -1.4794    0.5615   -4.9225 C.ar      1 ACP         0.7185
     27 N6         -1.2378    0.0044   -6.1899 N.pl3     1 ACP        -0.9442
     28 N1         -2.7406    0.8885   -4.5512 N.ar      1 ACP        -0.8040
     29 C2         -2.9113    1.4216   -3.3172 C.ar      1 ACP         0.6560
     30 N3         -1.9824    1.6843   -2.3721 N.ar      1 ACP        -0.7058
     31 C4         -0.7613    1.3370   -2.8054 C.ar      1 ACP         0.5729
     32 HOG2        2.1364   -1.9260    0.3815 H         1 ACP         0.4440
     33 HOG3        3.1770   -4.5404   -0.1990 H         1 ACP         0.4440
     34 H3B1        5.1542   -1.8879    2.8420 H         1 ACP         0.1084
     35 H3B2        5.7810   -3.4934    2.4795 H         1 ACP         0.1084
     36 H5'1        4.6070    1.5616    1.0933 H         1 ACP         0.0281
     37 H5'2        4.4825    2.9835    0.0251 H         1 ACP         0.0281
     38 H4'         2.3751    2.7029    1.3156 H         1 ACP         0.1082
     39 H3'         2.4336   -0.1217   -0.0015 H         1 ACP         0.0650
     40 HO3'        3.0987    0.1465    2.1461 H         1 ACP         0.4300
     41 H2'         0.0316    0.0155   -0.0339 H         1 ACP         0.0785
     42 HO2'       -0.1608    0.7921    2.1351 H         1 ACP         0.4275
     43 H1'        -0.1474    2.7798   -0.6651 H         1 ACP         0.1009
     44 H8          2.4442    0.9470   -2.6763 H         1 ACP         0.1067
     45 HN61       -0.2955   -0.1901   -6.4713 H         1 ACP         0.4213
     46 HN62       -1.9987   -0.1045   -6.8334 H         1 ACP         0.4213
     47 H2         -3.9335    1.6716   -3.0534 H         1 ACP         0.0365
@<TRIPOS>BOND
     1    1    2 2
     2    1    3 1
     3    1    4 1
     4    1    8 1
     5    3   32 1
     6    4   33 1
     7    5    6 2
     8    5    7 1
     9    5    8 1
    10    5   12 1
    11    8   34 1
    12    8   35 1
    13    9   10 2
    14    9   11 1
    15    9   12 1
    16    9   13 1
    17   13   14 1
    18   14   15 1
    19   14   36 1
    20   14   37 1
    21   15   16 1
    22   15   17 1
    23   15   38 1
    24   16   21 1
    25   17   18 1
    26   17   19 1
    27   17   39 1
    28   18   40 1
    29   19   20 1
    30   19   21 1
    31   19   41 1
    32   20   42 1
    33   21   22 1
    34   21   43 1
    35   22   23 ar
    36   22   31 ar
    37   23   24 ar
    38   23   44 1
    39   24   25 ar
    40   25   26 ar
    41   25   31 ar
    42   26   27 1
    43   26   28 ar
    44   27   45 1
    45   27   46 1
    46   28   29 ar
    47   29   30 ar
    48   29   47 1
    49   30   31 ar
@<TRIPOS>SUBSTRUCTURE
     1 ACP         1 GROUP 0 A     ****
@<TRIPOS>MOLECULE
[[5-(6-aminopurin-9-yl)-3,4-dihydroxy-tetrahydrofuran-2-yl]methoxy-oxido-phosphoryl]oxy-(phosphonomethyl)phosphinate
   47    49     1     0     0
SMALL
USER_CHARGES

@<TRIPOS>ATOM
      1 PG         -5.3512   -0.3023    2.6215 P.3       1 ACP         1.6478
      2 O1G        -5.5258   -1.7907    2.5851 O.2       1 ACP        -0.9103
      3 O2G        -3.9022    0.2146    3.1151 O.3       1 ACP        -0.7989
      4 O3G        -6.3833    0.4933    3.5762 O.3       1 ACP        -0.7989
      5 PB         -5.3955    2.3402    0.7925 P.3       1 ACP         1.4947
      6 O1B        -6.4368    2.9965    1.6692 O.co2     1 ACP        -0.8554
      7 O2B        -5.3102    2.6019   -0.6934 O.co2     1 ACP        -0.8554
      8 C3B        -5.5587    0.5122    1.0218 C.3       1 ACP        -0.6550
      9 PA         -3.0799    3.8626    1.8539 P.3       1 ACP         1.5921
     10 O1A        -3.8211    4.5962    2.9506 O.co2     1 ACP        -0.8561
     11 O2A        -2.7011    4.5719    0.5719 O.co2     1 ACP        -0.8561
     12 O3A        -3.9227    2.5173    1.4698 O.3       1 ACP        -0.8166
     13 O5'        -1.7337    3.1724    2.4754 O.3       1 ACP        -0.5737
     14 C5'        -0.8811    2.4285    1.6206 C.3       1 ACP         0.2197
     15 C4'        -0.1994    1.3333    2.4288 C.3       1 ACP         0.0944
     16 O4'        -1.1285    0.2356    2.5840 O.3       1 ACP        -0.4017
     17 C3'         1.0324    0.7610    1.7344 C.3       1 ACP         0.0859
     18 O3'         1.9175    0.2377    2.7247 O.3       1 ACP        -0.5941
     19 C2'         0.4468   -0.3802    0.9263 C.3       1 ACP         0.0924
     20 O2'         1.3993   -1.3703    0.5961 O.3       1 ACP        -0.5928
     21 C1'        -0.6159   -0.9100    1.8769 C.3       1 ACP         0.3967
     22 N9         -1.7127   -1.6108    1.2130 N.pl3     1 ACP        -0.6763
     23 C8         -2.8641   -1.0399    0.7392 C.ar      1 ACP         0.5586
     24 N7         -3.6659   -1.9257    0.1858 N.2       1 ACP        -0.5795
     25 C5         -3.0053   -3.1223    0.3069 C.ar      1 ACP        -0.2116
     26 C6         -3.3321   -4.4178   -0.0813 C.ar      1 ACP         0.7185
     27 N6         -4.5476   -4.6866   -0.7335 N.pl3     1 ACP        -0.9442
     28 N1         -2.4608   -5.4225    0.1773 N.ar      1 ACP        -0.8040
     29 C2         -1.3053   -5.1020    0.8081 C.ar      1 ACP         0.6560
     30 N3         -0.8788   -3.8921    1.2315 N.ar      1 ACP        -0.7058
     31 C4         -1.7870   -2.9477    0.9438 C.ar      1 ACP         0.5729
     32 HOG2       -3.5917   -0.0285    4.0132 H         1 ACP         0.4440
     33 HOG3       -6.3995    0.2867    4.5349 H         1 ACP         0.4440
     34 H3B1       -4.8408    0.0632    0.3261 H         1 ACP         0.1084
     35 H3B2       -6.5599    0.2534    0.6587 H         1 ACP         0.1084
     36 H5'1       -1.4802    1.9929    0.8148 H         1 ACP         0.0281
     37 H5'2       -0.1370    3.1043    1.1873 H         1 ACP         0.0281
     38 H4'         0.0403    1.7078    3.4343 H         1 ACP         0.1082
     39 H3'         1.5906    1.4859    1.1353 H         1 ACP         0.0650
     40 HO3'        1.4256   -0.4528    3.1940 H         1 ACP         0.4300
     41 H2'        -0.0017    0.0018    0.0005 H         1 ACP         0.0785
     42 HO2'        0.9369   -2.0558    0.0825 H         1 ACP         0.4275
     43 H1'        -0.1998   -1.6319    2.6178 H         1 ACP         0.1009
     44 H8         -3.0609    0.0200    0.8250 H         1 ACP         0.1067
     45 HN61       -5.2046   -3.9433   -0.8775 H         1 ACP         0.4213
     46 HN62       -4.7849   -5.6332   -0.9625 H         1 ACP         0.4213
     47 H2         -0.6318   -5.9307    0.9993 H         1 ACP         0.0365
@<TRIPOS>BOND
     1    1    2 2
     2    1    3 1
     3    1    4 1
     4    1    8 1
     5    3   32 1
     6    4   33 1
     7    5    6 2
     8    5    7 1
     9    5    8 1
    10    5   12 1
    11    8   34 1
    12    8   35 1
    13    9   10 2
    14    9   11 1
    15    9   12 1
    16    9   13 1
    17   13   14 1
    18   14   15 1
    19   14   36 1
    20   14   37 1
    21   15   16 1
    22   15   17 1
    23   15   38 1
    24   16   21 1
    25   17   18 1
    26   17   19 1
    27   17   39 1
    28   18   40 1
    29   19   20 1
    30   19   21 1
    31   19   41 1
    32   20   42 1
    33   21   22 1
    34   21   43 1
    35   22   23 ar
    36   22   31 ar
    37   23   24 ar
    38   23   44 1
    39   24   25 ar
    40   25   26 ar
    41   25   31 ar
    42   26   27 1
    43   26   28 ar
    44   27   45 1
    45   27   46 1
    46   28   29 ar
    47   29   30 ar
    48   29   47 1
    49   30   31 ar
@<TRIPOS>SUBSTRUCTURE
     1 ACP         1 GROUP 0 A     ****
@<TRIPOS>MOLECULE
[[5-(6-aminopurin-9-yl)-3,4-dihydroxy-tetrahydrofuran-2-yl]methoxy-oxido-phosphoryl]oxy-(phosphonomethyl)phosphinate
   47    49     1     0     0
SMALL
USER_CHARGES

@<TRIPOS>ATOM
      1 PG         -4.5550    1.2402   -1.5545 P.3       1 ACP         1.6478
      2 O1G        -5.3025   -0.0342   -1.8081 O.2       1 ACP        -0.9103
      3 O2G        -4.1223    2.0654   -2.8744 O.3       1 ACP        -0.7989
      4 O3G        -3.1713    1.0808   -0.7362 O.3       1 ACP        -0.7989
      5 PB         -4.7748    4.1140   -0.1321 P.3       1 ACP         1.4947
      6 O1B        -5.8294    4.8379    0.6724 O.co2     1 ACP        -0.8554
      7 O2B        -4.1671    4.7047   -1.3832 O.co2     1 ACP        -0.8554
      8 C3B        -5.4690    2.4603   -0.5842 C.3       1 ACP        -0.6550
      9 PA         -2.5927    4.4187    1.8559 P.3       1 ACP         1.5921
     10 O1A        -3.4214    5.0525    2.9523 O.co2     1 ACP        -0.8561
     11 O2A        -1.6640    5.2600    1.0075 O.co2     1 ACP        -0.8561
     12 O3A        -3.5926    3.5929    0.8630 O.3       1 ACP        -0.8166
     13 O5'        -1.7337    3.1724    2.4754 O.3       1 ACP        -0.5737
     14 C5'        -0.8811    2.4285    1.6206 C.3       1 ACP         0.2197
     15 C4'        -0.1994    1.3333    2.4288 C.3       1 ACP         0.0944
     16 O4'        -1.1285    0.2356    2.5840 O.3       1 ACP        -0.4017
     17 C3'         1.0324    0.7610    1.7344 C.3       1 ACP         0.0859
     18 O3'         1.9175    0.2377    2.7247 O.3       1 ACP        -0.5941
     19 C2'         0.4468   -0.3802    0.9263 C.3       1 ACP         0.0924
     20 O2'         1.3993   -1.3703    0.5961 O.3       1 ACP        -0.5928
     21 C1'        -0.6159   -0.9100    1.8769 C.3       1 ACP         0.3967
     22 N9         -1.7127   -1.6108    1.2130 N.pl3     1 ACP        -0.6763
     23 C8         -2.8641   -1.0399    0.7392 C.ar      1 ACP         0.5586
     24 N7         -3.6659   -1.9257    0.1858 N.2       1 ACP        -0.5795
     25 C5         -3.0053   -3.1223    0.3069 C.ar      1 ACP        -0.2116
     26 C6         -3.3321   -4.4178   -0.0813 C.ar      1 ACP         0.7185
     27 N6         -4.5476   -4.6866   -0.7335 N.pl3     1 ACP        -0.9442
     28 N1         -2.4608   -5.4225    0.1773 N.ar      1 ACP        -0.8040
     29 C2         -1.3053   -5.1020    0.8081 C.ar      1 ACP         0.6560
     30 N3         -0.8788   -3.8921    1.2315 N.ar      1 ACP        -0.7058
     31 C4         -1.7870   -2.9477    0.9438 C.ar      1 ACP         0.5729
     32 HOG2       -3.5347    1.6359   -3.5319 H         1 ACP         0.4440
     33 HOG3       -2.4586    0.5215   -1.1121 H         1 ACP         0.4440
     34 H3B1       -6.4059    2.6691   -1.1128 H         1 ACP         0.1084
     35 H3B2       -5.7372    1.9793    0.3633 H         1 ACP         0.1084
     36 H5'1       -1.4802    1.9929    0.8148 H         1 ACP         0.0281
     37 H5'2       -0.1370    3.1043    1.1873 H         1 ACP         0.0281
     38 H4'         0.0403    1.7078    3.4343 H         1 ACP         0.1082
     39 H3'         1.5906    1.4859    1.1353 H         1 ACP         0.0650
     40 HO3'        2.1521    0.9800    3.3017 H         1 ACP         0.4300
     41 H2'        -0.0017    0.0018    0.0005 H         1 ACP         0.0785
     42 HO2'        1.7495   -1.7243    1.4324 H         1 ACP         0.4275
     43 H1'        -0.1998   -1.6319    2.6178 H         1 ACP         0.1009
     44 H8         -3.0609    0.0200    0.8250 H         1 ACP         0.1067
     45 HN61       -5.2046   -3.9433   -0.8775 H         1 ACP         0.4213
     46 HN62       -4.7849   -5.6332   -0.9625 H         1 ACP         0.4213
     47 H2         -0.6318   -5.9307    0.9993 H         1 ACP         0.0365
@<TRIPOS>BOND
     1    1    2 2
     2    1    3 1
     3    1    4 1
     4    1    8 1
     5    3   32 1
     6    4   33 1
     7    5    6 2
     8    5    7 1
     9    5    8 1
    10    5   12 1
    11    8   34 1
    12    8   35 1
    13    9   10 2
    14    9   11 1
    15    9   12 1
    16    9   13 1
    17   13   14 1
    18   14   15 1
    19   14   36 1
    20   14   37 1
    21   15   16 1
    22   15   17 1
    23   15   38 1
    24   16   21 1
    25   17   18 1
    26   17   19 1
    27   17   39 1
    28   18   40 1
    29   19   20 1
    30   19   21 1
    31   19   41 1
    32   20   42 1
    33   21   22 1
    34   21   43 1
    35   22   23 ar
    36   22   31 ar
    37   23   24 ar
    38   23   44 1
    39   24   25 ar
    40   25   26 ar
    41   25   31 ar
    42   26   27 1
    43   26   28 ar
    44   27   45 1
    45   27   46 1
    46   28   29 ar
    47   29   30 ar
    48   29   47 1
    49   30   31 ar
@<TRIPOS>SUBSTRUCTURE
     1 ACP         1 GROUP 0 A     ****
@<TRIPOS>MOLECULE
[[5-(6-aminopurin-9-yl)-3,4-dihydroxy-tetrahydrofuran-2-yl]methoxy-oxido-phosphoryl]oxy-(phosphonomethyl)phosphinate
   47    49     1     0     0
SMALL
USER_CHARGES

@<TRIPOS>ATOM
      1 PG         -5.6368   -1.8259   -4.0440 P.3       1 ACP         1.6478
      2 O1G        -6.8752   -1.2045   -4.6164 O.2       1 ACP        -0.9103
      3 O2G        -4.3683   -1.8915   -5.0423 O.3       1 ACP        -0.7989
      4 O3G        -5.7984   -3.3505   -3.5349 O.3       1 ACP        -0.7989
      5 PB         -4.4297    0.7914   -2.6217 P.3       1 ACP         1.4947
      6 O1B        -3.9476    1.1340   -1.2312 O.co2     1 ACP        -0.8554
      7 O2B        -5.5082    1.5862   -3.3208 O.co2     1 ACP        -0.8554
      8 C3B        -4.9781   -0.9748   -2.5924 C.3       1 ACP        -0.6550
      9 PA         -2.2218    1.7171   -4.3750 P.3       1 ACP         1.5921
     10 O1A        -3.1253    2.6237   -5.1827 O.co2     1 ACP        -0.8561
     11 O2A        -1.0617    1.0011   -5.0320 O.co2     1 ACP        -0.8561
     12 O3A        -3.1480    0.6084   -3.6132 O.3       1 ACP        -0.8166
     13 O5'        -1.6520    2.5338   -3.0775 O.3       1 ACP        -0.5737
     14 C5'        -0.7794    1.8744   -2.1748 C.3       1 ACP         0.2197
     15 C4'        -0.9699    2.4597   -0.7819 C.3       1 ACP         0.0944
     16 O4'        -2.1475    1.8640   -0.2014 O.3       1 ACP        -0.4017
     17 C3'         0.1697    2.1347    0.1695 C.3       1 ACP         0.0859
     18 O3'         0.1809    3.0982    1.2223 O.3       1 ACP        -0.5941
     19 C2'        -0.2543    0.7880    0.7187 C.3       1 ACP         0.0924
     20 O2'         0.3606    0.4944    1.9582 O.3       1 ACP        -0.5928
     21 C1'        -1.7682    0.9516    0.8548 C.3       1 ACP         0.3967
     22 N9         -2.5926   -0.2553    0.7436 N.pl3     1 ACP        -0.6763
     23 C8         -2.2879   -1.3752    0.0161 C.ar      1 ACP         0.5586
     24 N7         -3.2214   -2.2987    0.1123 N.2       1 ACP        -0.5795
     25 C5         -4.1723   -1.7531    0.9377 C.ar      1 ACP        -0.2116
     26 C6         -5.3870   -2.2342    1.4159 C.ar      1 ACP         0.7185
     27 N6         -5.8433   -3.5142    1.0574 N.pl3     1 ACP        -0.9442
     28 N1         -6.1289   -1.4512    2.2356 N.ar      1 ACP        -0.8040
     29 C2         -5.6370   -0.2275    2.5461 C.ar      1 ACP         0.6560
     30 N3         -4.4810    0.3469    2.1476 N.ar      1 ACP        -0.7058
     31 C4         -3.7996   -0.4810    1.3417 C.ar      1 ACP         0.5729
     32 HOG2       -4.4510   -2.3890   -5.8836 H         1 ACP         0.4440
     33 HOG3       -6.0696   -4.0399   -4.1778 H         1 ACP         0.4440
     34 H3B1       -5.7346   -1.0349   -1.8018 H         1 ACP         0.1084
     35 H3B2       -4.1114   -1.5514   -2.2495 H         1 ACP         0.1084
     36 H5'1       -1.0116    0.8048   -2.1755 H         1 ACP         0.0281
     37 H5'2        0.2522    2.0163   -2.5121 H         1 ACP         0.0281
     38 H4'        -1.1469    3.5409   -0.8522 H         1 ACP         0.1082
     39 H3'         1.1601    2.1310   -0.2934 H         1 ACP         0.0650
     40 HO3'        0.9173    2.8584    1.8048 H         1 ACP         0.4300
     41 H2'        -0.0024   -0.0091    0.0062 H         1 ACP         0.0785
     42 HO2'        0.0384   -0.3797    2.2403 H         1 ACP         0.4275
     43 H1'        -2.0584    1.4255    1.8301 H         1 ACP         0.1009
     44 H8         -1.3765   -1.4593   -0.5599 H         1 ACP         0.1067
     45 HN61       -5.3086   -4.0656    0.4134 H         1 ACP         0.4213
     46 HN62       -6.7426   -3.8233    1.3745 H         1 ACP         0.4213
     47 H2         -6.2570    0.3723    3.2040 H         1 ACP         0.0365
@<TRIPOS>BOND
     1    1    2 2
     2    1    3 1
     3    1    4 1
     4    1    8 1
     5    3   32 1
     6    4   33 1
     7    5    6 2
     8    5    7 1
     9    5    8 1
    10    5   12 1
    11    8   34 1
    12    8   35 1
    13    9   10 2
    14    9   11 1
    15    9   12 1
    16    9   13 1
    17   13   14 1
    18   14   15 1
    19   14   36 1
    20   14   37 1
    21   15   16 1
    22   15   17 1
    23   15   38 1
    24   16   21 1
    25   17   18 1
    26   17   19 1
    27   17   39 1
    28   18   40 1
    29   19   20 1
    30   19   21 1
    31   19   41 1
    32   20   42 1
    33   21   22 1
    34   21   43 1
    35   22   23 ar
    36   22   31 ar
    37   23   24 ar
    38   23   44 1
    39   24   25 ar
    40   25   26 ar
    41   25   31 ar
    42   26   27 1
    43   26   28 ar
    44   27   45 1
    45   27   46 1
    46   28   29 ar
    47   29   30 ar
    48   29   47 1
    49   30   31 ar
@<TRIPOS>SUBSTRUCTURE
     1 ACP         1 GROUP 0 A     ****
