ACP
                    3D
 Structure written by MMmdl.
 46 48  0  0  1  0            999 V2000
    0.8550   23.2630   12.2680 P   0  0  0  0  0  0
    0.2610   24.0670   11.1550 O   0  0  0  0  0  0
    1.5460   24.2690   13.3220 O   0  5  0  0  0  0
   -0.1310   22.3590   12.9100 O   0  0  0  0  0  0
    3.9600   22.9890   11.4430 P   0  0  0  0  0  0
    4.3120   23.6160   12.7350 O   0  0  0  0  0  0
    3.9240   23.9590   10.3010 O   0  5  0  0  0  0
    2.2840   22.2700   11.6710 C   0  0  0  0  0  0
    5.7430   20.7430   12.1060 P   0  0  0  0  0  0
    4.8310   20.2740   13.1830 O   0  0  0  0  0  0
    7.0060   21.2900   12.6600 O   0  5  0  0  0  0
    5.0120   21.8360   11.1810 O   0  0  0  0  0  0
    6.0310   19.5600   11.0600 O   0  0  0  0  0  0
    4.9790   19.0950   10.1930 C   0  0  0  0  0  0
    5.2560   17.6540    9.8080 C   0  0  1  0  0  0
    6.3740   17.6320    8.8930 O   0  0  0  0  0  0
    5.6520   16.8010   11.0140 C   0  0  1  0  0  0
    5.2040   15.4480   10.8610 O   0  0  0  0  0  0
    7.1700   16.9250   11.0340 C   0  0  1  0  0  0
    7.8570   15.9360   11.8240 O   0  0  0  0  0  0
    7.4740   16.9460    9.5320 C   0  0  2  0  0  0
    8.7090   17.7200    9.2130 N   0  0  0  0  0  0
    8.8950   19.0190    9.4210 C   0  0  0  0  0  0
   10.1830   19.2940    9.1830 N   0  0  0  0  0  0
   10.7990   18.1770    8.8190 C   0  0  0  0  0  0
   12.1150   17.8560    8.4630 C   0  0  0  0  0  0
   13.1040   18.7320    8.5870 N   0  0  0  0  0  0
   12.3770   16.5790    8.1080 N   0  0  0  0  0  0
   11.4290   15.6450    8.1140 C   0  0  0  0  0  0
   10.2040   15.9280    8.4830 N   0  0  0  0  0  0
    9.8490   17.1740    8.8270 C   0  0  0  0  0  0
   -1.0601   22.7695   13.3322 H   0  0  0  0  0  0
    2.4713   21.4406   12.3689 H   0  0  0  0  0  0
    2.0583   21.8657   10.6732 H   0  0  0  0  0  0
    4.0151   19.1594   10.7190 H   0  0  0  0  0  0
    4.9458   19.7204    9.2887 H   0  0  0  0  0  0
    4.3602   17.2441    9.3185 H   0  0  0  0  0  0
    5.1723   17.0686   11.9670 H   0  0  0  0  0  0
    4.1272   15.2252   10.8317 H   0  0  0  0  0  0
    7.5793   17.7731   11.6025 H   0  0  0  0  0  0
    7.6770   15.8755   12.9075 H   0  0  0  0  0  0
    7.5941   15.9232    9.1453 H   0  0  0  0  0  0
    8.1200   19.7380    9.7340 H   0  0  0  0  0  0
   12.8858   19.7706    8.8763 H   0  0  0  0  0  0
   14.1421   18.4196    8.4005 H   0  0  0  0  0  0
   11.6640   14.6120    7.8060 H   0  0  0  0  0  0
  1  2  2  0  0  0
  1  3  1  0  0  0
  1  4  1  0  0  0
  1  8  1  0  0  0
  4 32  1  0  0  0
  5  6  2  0  0  0
  5  7  1  0  0  0
  5  8  1  0  0  0
  5 12  1  0  0  0
  8 33  1  0  0  0
  8 34  1  0  0  0
  9 10  2  0  0  0
  9 11  1  0  0  0
  9 12  1  0  0  0
  9 13  1  0  0  0
 13 14  1  0  0  0
 14 15  1  0  0  0
 14 35  1  0  0  0
 14 36  1  0  0  0
 15 16  1  0  0  0
 15 17  1  0  0  0
 15 37  1  0  0  0
 16 21  1  0  0  0
 17 18  1  0  0  0
 17 19  1  0  0  0
 17 38  1  0  0  0
 18 39  1  0  0  0
 19 20  1  0  0  0
 19 21  1  0  0  0
 19 40  1  0  0  0
 20 41  1  0  0  0
 21 22  1  0  0  0
 21 42  1  0  0  0
 22 23  1  0  0  0
 22 31  1  0  0  0
 23 24  2  0  0  0
 23 43  1  0  0  0
 24 25  1  0  0  0
 25 26  2  0  0  0
 25 31  1  0  0  0
 26 27  1  0  0  0
 26 28  1  0  0  0
 27 44  1  0  0  0
 27 45  1  0  0  0
 28 29  2  0  0  0
 29 30  1  0  0  0
 29 46  1  0  0  0
 30 31  2  0  0  0
M  CHG  3   3  -1   7  -1  11  -1
M  END
> <s_m_source_file>
/cbio/jclab/home/rustenburg/PFK/Epik-Ligands/Results/InProgress/PHOSPHOMETHYLPHOSPHONIC ACID ADENYLATE ESTER/pH_4.0/PHOSPHOMETHYLPHOSPHONIC ACID ADENYLATE ESTER_pH_4.0-before_epik.mol2

> <i_m_source_file_index>
1

> <r_lp_tautomer_probability>
0.999997216410988

> <r_epik_Ionization_Penalty>
  0.5952

> <r_epik_Ionization_Penalty_Charging>
  0.2665

> <r_epik_Ionization_Penalty_Neutral>
  0.3288

> <r_epik_State_Penalty>
  0.1929

> <r_epik_Charging_Adjusted_Penalty>
0.459338300986211

> <i_epik_Tot_Q>
-3

> <i_epik_Tot_abs_Q>
3

> <s_epik_Chemistry_Notes>
This compound contains an acetal/aminal-like group ( X-CH(R)-Y where X, Y are N, S, or O) that may be acid/base labile, releasing an aldehyde.

$$$$
ACP
                    3D
 Structure written by MMmdl.
 47 49  0  0  1  0            999 V2000
    0.8550   23.2630   12.2680 P   0  0  0  0  0  0
    0.2610   24.0670   11.1550 O   0  0  0  0  0  0
    1.5460   24.2690   13.3220 O   0  5  0  0  0  0
   -0.1310   22.3590   12.9100 O   0  0  0  0  0  0
    3.9600   22.9890   11.4430 P   0  0  0  0  0  0
    4.3120   23.6160   12.7350 O   0  0  0  0  0  0
    3.9240   23.9590   10.3010 O   0  5  0  0  0  0
    2.2840   22.2700   11.6710 C   0  0  0  0  0  0
    5.7430   20.7430   12.1060 P   0  0  2  0  0  0
    4.8310   20.2740   13.1830 O   0  0  0  0  0  0
    7.0060   21.2900   12.6600 O   0  0  0  0  0  0
    5.0120   21.8360   11.1810 O   0  0  0  0  0  0
    6.0310   19.5600   11.0600 O   0  0  0  0  0  0
    4.9790   19.0950   10.1930 C   0  0  0  0  0  0
    5.2560   17.6540    9.8080 C   0  0  1  0  0  0
    6.3740   17.6320    8.8930 O   0  0  0  0  0  0
    5.6520   16.8010   11.0140 C   0  0  1  0  0  0
    5.2040   15.4480   10.8610 O   0  0  0  0  0  0
    7.1700   16.9250   11.0340 C   0  0  1  0  0  0
    7.8570   15.9360   11.8240 O   0  0  0  0  0  0
    7.4740   16.9460    9.5320 C   0  0  2  0  0  0
    8.7090   17.7200    9.2130 N   0  0  0  0  0  0
    8.8950   19.0190    9.4210 C   0  0  0  0  0  0
   10.1830   19.2940    9.1830 N   0  0  0  0  0  0
   10.7990   18.1770    8.8190 C   0  0  0  0  0  0
   12.1150   17.8560    8.4630 C   0  0  0  0  0  0
   13.1040   18.7320    8.5870 N   0  0  0  0  0  0
   12.3770   16.5790    8.1080 N   0  0  0  0  0  0
   11.4290   15.6450    8.1140 C   0  0  0  0  0  0
   10.2040   15.9280    8.4830 N   0  0  0  0  0  0
    9.8490   17.1740    8.8270 C   0  0  0  0  0  0
   -1.0601   22.7695   13.3322 H   0  0  0  0  0  0
    2.4713   21.4406   12.3689 H   0  0  0  0  0  0
    2.0583   21.8657   10.6732 H   0  0  0  0  0  0
    6.9756   22.1095   13.3931 H   0  0  0  0  0  0
    4.0151   19.1594   10.7190 H   0  0  0  0  0  0
    4.9458   19.7204    9.2887 H   0  0  0  0  0  0
    4.3602   17.2441    9.3185 H   0  0  0  0  0  0
    5.1723   17.0686   11.9670 H   0  0  0  0  0  0
    4.1272   15.2252   10.8317 H   0  0  0  0  0  0
    7.5793   17.7731   11.6025 H   0  0  0  0  0  0
    7.6770   15.8755   12.9075 H   0  0  0  0  0  0
    7.5941   15.9232    9.1453 H   0  0  0  0  0  0
    8.1200   19.7380    9.7340 H   0  0  0  0  0  0
   12.8858   19.7706    8.8763 H   0  0  0  0  0  0
   14.1421   18.4196    8.4005 H   0  0  0  0  0  0
   11.6640   14.6120    7.8060 H   0  0  0  0  0  0
  1  2  2  0  0  0
  1  3  1  0  0  0
  1  4  1  0  0  0
  1  8  1  0  0  0
  4 32  1  0  0  0
  5  6  2  0  0  0
  5  7  1  0  0  0
  5  8  1  0  0  0
  5 12  1  0  0  0
  8 33  1  0  0  0
  8 34  1  0  0  0
  9 10  2  0  0  0
  9 11  1  0  0  0
  9 12  1  0  0  0
  9 13  1  0  0  0
 11 35  1  0  0  0
 13 14  1  0  0  0
 14 15  1  0  0  0
 14 36  1  0  0  0
 14 37  1  0  0  0
 15 16  1  0  0  0
 15 17  1  0  0  0
 15 38  1  0  0  0
 16 21  1  0  0  0
 17 18  1  0  0  0
 17 19  1  0  0  0
 17 39  1  0  0  0
 18 40  1  0  0  0
 19 20  1  0  0  0
 19 21  1  0  0  0
 19 41  1  0  0  0
 20 42  1  0  0  0
 21 22  1  0  0  0
 21 43  1  0  0  0
 22 23  1  0  0  0
 22 31  1  0  0  0
 23 24  2  0  0  0
 23 44  1  0  0  0
 24 25  1  0  0  0
 25 26  2  0  0  0
 25 31  1  0  0  0
 26 27  1  0  0  0
 26 28  1  0  0  0
 27 45  1  0  0  0
 27 46  1  0  0  0
 28 29  2  0  0  0
 29 30  1  0  0  0
 29 47  1  0  0  0
 30 31  2  0  0  0
M  CHG  2   3  -1   7  -1
M  END
> <s_m_source_file>
/cbio/jclab/home/rustenburg/PFK/Epik-Ligands/Results/InProgress/PHOSPHOMETHYLPHOSPHONIC ACID ADENYLATE ESTER/pH_4.0/PHOSPHOMETHYLPHOSPHONIC ACID ADENYLATE ESTER_pH_4.0-before_epik.mol2

> <i_m_source_file_index>
1

> <r_epik_Ionization_Penalty>
  0.9653

> <r_epik_Ionization_Penalty_Charging>
  0.0112

> <r_epik_Ionization_Penalty_Neutral>
  0.9542

> <r_epik_State_Penalty>
  0.8668

> <r_epik_Charging_Adjusted_Penalty>
0.877962800875154

> <i_epik_Tot_Q>
-2

> <i_epik_Tot_abs_Q>
2

> <s_epik_Chemistry_Notes>
This compound contains an acetal/aminal-like group ( X-CH(R)-Y where X, Y are N, S, or O) that may be acid/base labile, releasing an aldehyde.

$$$$
ACP
                    3D
 Structure written by MMmdl.
 48 50  0  0  1  0            999 V2000
    0.8550   23.2630   12.2680 P   0  0  0  0  0  0
    0.2610   24.0670   11.1550 O   0  0  0  0  0  0
    1.5460   24.2690   13.3220 O   0  5  0  0  0  0
   -0.1310   22.3590   12.9100 O   0  0  0  0  0  0
    3.9600   22.9890   11.4430 P   0  0  0  0  0  0
    4.3120   23.6160   12.7350 O   0  0  0  0  0  0
    3.9240   23.9590   10.3010 O   0  5  0  0  0  0
    2.2840   22.2700   11.6710 C   0  0  0  0  0  0
    5.7430   20.7430   12.1060 P   0  0  2  0  0  0
    4.8310   20.2740   13.1830 O   0  0  0  0  0  0
    7.0060   21.2900   12.6600 O   0  0  0  0  0  0
    5.0120   21.8360   11.1810 O   0  0  0  0  0  0
    6.0310   19.5600   11.0600 O   0  0  0  0  0  0
    4.9790   19.0950   10.1930 C   0  0  0  0  0  0
    5.2560   17.6540    9.8080 C   0  0  1  0  0  0
    6.3740   17.6320    8.8930 O   0  0  0  0  0  0
    5.6520   16.8010   11.0140 C   0  0  1  0  0  0
    5.2040   15.4480   10.8610 O   0  0  0  0  0  0
    7.1700   16.9250   11.0340 C   0  0  1  0  0  0
    7.8570   15.9360   11.8240 O   0  0  0  0  0  0
    7.4740   16.9460    9.5320 C   0  0  2  0  0  0
    8.7090   17.7200    9.2130 N   0  0  0  0  0  0
    8.8950   19.0190    9.4210 C   0  0  0  0  0  0
   10.1830   19.2940    9.1830 N   0  3  0  0  0  0
   10.7990   18.1770    8.8190 C   0  0  0  0  0  0
   12.1150   17.8560    8.4630 C   0  0  0  0  0  0
   13.1040   18.7320    8.5870 N   0  0  0  0  0  0
   12.3770   16.5790    8.1080 N   0  0  0  0  0  0
   11.4290   15.6450    8.1140 C   0  0  0  0  0  0
   10.2040   15.9280    8.4830 N   0  0  0  0  0  0
    9.8490   17.1740    8.8270 C   0  0  0  0  0  0
   -1.0601   22.7695   13.3322 H   0  0  0  0  0  0
    2.4713   21.4406   12.3689 H   0  0  0  0  0  0
    2.0583   21.8657   10.6732 H   0  0  0  0  0  0
    6.9756   22.1095   13.3931 H   0  0  0  0  0  0
    4.0151   19.1594   10.7190 H   0  0  0  0  0  0
    4.9458   19.7204    9.2887 H   0  0  0  0  0  0
    4.3602   17.2441    9.3185 H   0  0  0  0  0  0
    5.1723   17.0686   11.9670 H   0  0  0  0  0  0
    4.1272   15.2252   10.8317 H   0  0  0  0  0  0
    7.5793   17.7731   11.6025 H   0  0  0  0  0  0
    7.6770   15.8755   12.9075 H   0  0  0  0  0  0
    7.5941   15.9232    9.1453 H   0  0  0  0  0  0
    8.1200   19.7380    9.7340 H   0  0  0  0  0  0
   12.8858   19.7706    8.8763 H   0  0  0  0  0  0
   14.1421   18.4196    8.4005 H   0  0  0  0  0  0
   11.6640   14.6120    7.8060 H   0  0  0  0  0  0
   10.5575   20.3212    9.3036 H   0  0  0  0  0  0
  1  2  2  0  0  0
  1  3  1  0  0  0
  1  4  1  0  0  0
  1  8  1  0  0  0
  4 32  1  0  0  0
  5  6  2  0  0  0
  5  7  1  0  0  0
  5  8  1  0  0  0
  5 12  1  0  0  0
  8 33  1  0  0  0
  8 34  1  0  0  0
  9 10  2  0  0  0
  9 11  1  0  0  0
  9 12  1  0  0  0
  9 13  1  0  0  0
 11 35  1  0  0  0
 13 14  1  0  0  0
 14 15  1  0  0  0
 14 36  1  0  0  0
 14 37  1  0  0  0
 15 16  1  0  0  0
 15 17  1  0  0  0
 15 38  1  0  0  0
 16 21  1  0  0  0
 17 18  1  0  0  0
 17 19  1  0  0  0
 17 39  1  0  0  0
 18 40  1  0  0  0
 19 20  1  0  0  0
 19 21  1  0  0  0
 19 41  1  0  0  0
 20 42  1  0  0  0
 21 22  1  0  0  0
 21 43  1  0  0  0
 22 23  1  0  0  0
 22 31  1  0  0  0
 23 24  2  0  0  0
 23 44  1  0  0  0
 24 25  1  0  0  0
 24 48  1  0  0  0
 25 26  2  0  0  0
 25 31  1  0  0  0
 26 27  1  0  0  0
 26 28  1  0  0  0
 27 45  1  0  0  0
 27 46  1  0  0  0
 28 29  2  0  0  0
 29 30  1  0  0  0
 29 47  1  0  0  0
 30 31  2  0  0  0
M  CHG  3   3  -1   7  -1  24   1
M  END
> <s_m_source_file>
/cbio/jclab/home/rustenburg/PFK/Epik-Ligands/Results/InProgress/PHOSPHOMETHYLPHOSPHONIC ACID ADENYLATE ESTER/pH_4.0/PHOSPHOMETHYLPHOSPHONIC ACID ADENYLATE ESTER_pH_4.0-before_epik.mol2

> <i_m_source_file_index>
1

> <r_epik_Ionization_Penalty>
  2.5433

> <r_epik_Ionization_Penalty_Charging>
  1.9056

> <r_epik_Ionization_Penalty_Neutral>
  0.6377

> <r_epik_State_Penalty>
  2.5491

> <r_epik_Charging_Adjusted_Penalty>
4.45466676593782

> <i_epik_Tot_Q>
-1

> <i_epik_Tot_abs_Q>
3

> <s_epik_Chemistry_Notes>
This compound contains an acetal/aminal-like group ( X-CH(R)-Y where X, Y are N, S, or O) that may be acid/base labile, releasing an aldehyde.

$$$$
ACP
                    3D
 Structure written by MMmdl.
 47 49  0  0  1  0            999 V2000
    0.8550   23.2630   12.2680 P   0  0  0  0  0  0
    0.2610   24.0670   11.1550 O   0  0  0  0  0  0
    1.5460   24.2690   13.3220 O   0  5  0  0  0  0
   -0.1310   22.3590   12.9100 O   0  0  0  0  0  0
    3.9600   22.9890   11.4430 P   0  0  0  0  0  0
    4.3120   23.6160   12.7350 O   0  0  0  0  0  0
    3.9240   23.9590   10.3010 O   0  5  0  0  0  0
    2.2840   22.2700   11.6710 C   0  0  0  0  0  0
    5.7430   20.7430   12.1060 P   0  0  0  0  0  0
    4.8310   20.2740   13.1830 O   0  0  0  0  0  0
    7.0060   21.2900   12.6600 O   0  5  0  0  0  0
    5.0120   21.8360   11.1810 O   0  0  0  0  0  0
    6.0310   19.5600   11.0600 O   0  0  0  0  0  0
    4.9790   19.0950   10.1930 C   0  0  0  0  0  0
    5.2560   17.6540    9.8080 C   0  0  1  0  0  0
    6.3740   17.6320    8.8930 O   0  0  0  0  0  0
    5.6520   16.8010   11.0140 C   0  0  1  0  0  0
    5.2040   15.4480   10.8610 O   0  0  0  0  0  0
    7.1700   16.9250   11.0340 C   0  0  1  0  0  0
    7.8570   15.9360   11.8240 O   0  0  0  0  0  0
    7.4740   16.9460    9.5320 C   0  0  2  0  0  0
    8.7090   17.7200    9.2130 N   0  0  0  0  0  0
    8.8950   19.0190    9.4210 C   0  0  0  0  0  0
   10.1830   19.2940    9.1830 N   0  0  0  0  0  0
   10.7990   18.1770    8.8190 C   0  0  0  0  0  0
   12.1150   17.8560    8.4630 C   0  0  0  0  0  0
   13.1040   18.7320    8.5870 N   0  0  0  0  0  0
   12.3770   16.5790    8.1080 N   0  3  0  0  0  0
   11.4290   15.6450    8.1140 C   0  0  0  0  0  0
   10.2040   15.9280    8.4830 N   0  0  0  0  0  0
    9.8490   17.1740    8.8270 C   0  0  0  0  0  0
   -1.0601   22.7695   13.3322 H   0  0  0  0  0  0
    2.4713   21.4406   12.3689 H   0  0  0  0  0  0
    2.0583   21.8657   10.6732 H   0  0  0  0  0  0
    4.0151   19.1594   10.7190 H   0  0  0  0  0  0
    4.9458   19.7204    9.2887 H   0  0  0  0  0  0
    4.3602   17.2441    9.3185 H   0  0  0  0  0  0
    5.1723   17.0686   11.9670 H   0  0  0  0  0  0
    4.1272   15.2252   10.8317 H   0  0  0  0  0  0
    7.5793   17.7731   11.6025 H   0  0  0  0  0  0
    7.6770   15.8755   12.9075 H   0  0  0  0  0  0
    7.5941   15.9232    9.1453 H   0  0  0  0  0  0
    8.1200   19.7380    9.7340 H   0  0  0  0  0  0
   12.8858   19.7706    8.8763 H   0  0  0  0  0  0
   14.1421   18.4196    8.4005 H   0  0  0  0  0  0
   11.6640   14.6120    7.8060 H   0  0  0  0  0  0
   13.3941   16.2902    7.8044 H   0  0  0  0  0  0
  1  2  2  0  0  0
  1  3  1  0  0  0
  1  4  1  0  0  0
  1  8  1  0  0  0
  4 32  1  0  0  0
  5  6  2  0  0  0
  5  7  1  0  0  0
  5  8  1  0  0  0
  5 12  1  0  0  0
  8 33  1  0  0  0
  8 34  1  0  0  0
  9 10  2  0  0  0
  9 11  1  0  0  0
  9 12  1  0  0  0
  9 13  1  0  0  0
 13 14  1  0  0  0
 14 15  1  0  0  0
 14 35  1  0  0  0
 14 36  1  0  0  0
 15 16  1  0  0  0
 15 17  1  0  0  0
 15 37  1  0  0  0
 16 21  1  0  0  0
 17 18  1  0  0  0
 17 19  1  0  0  0
 17 38  1  0  0  0
 18 39  1  0  0  0
 19 20  1  0  0  0
 19 21  1  0  0  0
 19 40  1  0  0  0
 20 41  1  0  0  0
 21 22  1  0  0  0
 21 42  1  0  0  0
 22 23  1  0  0  0
 22 31  1  0  0  0
 23 24  2  0  0  0
 23 43  1  0  0  0
 24 25  1  0  0  0
 25 26  2  0  0  0
 25 31  1  0  0  0
 26 27  1  0  0  0
 26 28  1  0  0  0
 27 44  1  0  0  0
 27 45  1  0  0  0
 28 29  2  0  0  0
 28 47  1  0  0  0
 29 30  1  0  0  0
 29 46  1  0  0  0
 30 31  2  0  0  0
M  CHG  4   3  -1   7  -1  11  -1  28   1
M  END
> <s_m_source_file>
/cbio/jclab/home/rustenburg/PFK/Epik-Ligands/Results/InProgress/PHOSPHOMETHYLPHOSPHONIC ACID ADENYLATE ESTER/pH_4.0/PHOSPHOMETHYLPHOSPHONIC ACID ADENYLATE ESTER_pH_4.0-before_epik.mol2

> <i_m_source_file_index>
1

> <r_lp_tautomer_probability>
0.978911883040575

> <r_epik_Ionization_Penalty>
  0.8145

> <r_epik_Ionization_Penalty_Charging>
  0.8077

> <r_epik_Ionization_Penalty_Neutral>
  0.0067

> <r_epik_State_Penalty>
  2.7149

> <r_epik_Charging_Adjusted_Penalty>
3.52260913202229

> <i_epik_Tot_Q>
-2

> <i_epik_Tot_abs_Q>
4

> <s_epik_Chemistry_Notes>
This compound contains an acetal/aminal-like group ( X-CH(R)-Y where X, Y are N, S, or O) that may be acid/base labile, releasing an aldehyde.

$$$$
ACP
                    3D
 Structure written by MMmdl.
 48 50  0  0  1  0            999 V2000
    0.8550   23.2630   12.2680 P   0  0  0  0  0  0
    0.2610   24.0670   11.1550 O   0  0  0  0  0  0
    1.5460   24.2690   13.3220 O   0  5  0  0  0  0
   -0.1310   22.3590   12.9100 O   0  0  0  0  0  0
    3.9600   22.9890   11.4430 P   0  0  0  0  0  0
    4.3120   23.6160   12.7350 O   0  0  0  0  0  0
    3.9240   23.9590   10.3010 O   0  5  0  0  0  0
    2.2840   22.2700   11.6710 C   0  0  0  0  0  0
    5.7430   20.7430   12.1060 P   0  0  2  0  0  0
    4.8310   20.2740   13.1830 O   0  0  0  0  0  0
    7.0060   21.2900   12.6600 O   0  0  0  0  0  0
    5.0120   21.8360   11.1810 O   0  0  0  0  0  0
    6.0310   19.5600   11.0600 O   0  0  0  0  0  0
    4.9790   19.0950   10.1930 C   0  0  0  0  0  0
    5.2560   17.6540    9.8080 C   0  0  1  0  0  0
    6.3740   17.6320    8.8930 O   0  0  0  0  0  0
    5.6520   16.8010   11.0140 C   0  0  1  0  0  0
    5.2040   15.4480   10.8610 O   0  0  0  0  0  0
    7.1700   16.9250   11.0340 C   0  0  1  0  0  0
    7.8570   15.9360   11.8240 O   0  0  0  0  0  0
    7.4740   16.9460    9.5320 C   0  0  2  0  0  0
    8.7090   17.7200    9.2130 N   0  0  0  0  0  0
    8.8950   19.0190    9.4210 C   0  0  0  0  0  0
   10.1830   19.2940    9.1830 N   0  0  0  0  0  0
   10.7990   18.1770    8.8190 C   0  0  0  0  0  0
   12.1150   17.8560    8.4630 C   0  0  0  0  0  0
   13.1040   18.7320    8.5870 N   0  0  0  0  0  0
   12.3770   16.5790    8.1080 N   0  3  0  0  0  0
   11.4290   15.6450    8.1140 C   0  0  0  0  0  0
   10.2040   15.9280    8.4830 N   0  0  0  0  0  0
    9.8490   17.1740    8.8270 C   0  0  0  0  0  0
   -1.0601   22.7695   13.3322 H   0  0  0  0  0  0
    2.4713   21.4406   12.3689 H   0  0  0  0  0  0
    2.0583   21.8657   10.6732 H   0  0  0  0  0  0
    6.9756   22.1095   13.3931 H   0  0  0  0  0  0
    4.0151   19.1594   10.7190 H   0  0  0  0  0  0
    4.9458   19.7204    9.2887 H   0  0  0  0  0  0
    4.3602   17.2441    9.3185 H   0  0  0  0  0  0
    5.1723   17.0686   11.9670 H   0  0  0  0  0  0
    4.1272   15.2252   10.8317 H   0  0  0  0  0  0
    7.5793   17.7731   11.6025 H   0  0  0  0  0  0
    7.6770   15.8755   12.9075 H   0  0  0  0  0  0
    7.5941   15.9232    9.1453 H   0  0  0  0  0  0
    8.1200   19.7380    9.7340 H   0  0  0  0  0  0
   12.8858   19.7706    8.8763 H   0  0  0  0  0  0
   14.1421   18.4196    8.4005 H   0  0  0  0  0  0
   11.6640   14.6120    7.8060 H   0  0  0  0  0  0
   13.3941   16.2902    7.8044 H   0  0  0  0  0  0
  1  2  2  0  0  0
  1  3  1  0  0  0
  1  4  1  0  0  0
  1  8  1  0  0  0
  4 32  1  0  0  0
  5  6  2  0  0  0
  5  7  1  0  0  0
  5  8  1  0  0  0
  5 12  1  0  0  0
  8 33  1  0  0  0
  8 34  1  0  0  0
  9 10  2  0  0  0
  9 11  1  0  0  0
  9 12  1  0  0  0
  9 13  1  0  0  0
 11 35  1  0  0  0
 13 14  1  0  0  0
 14 15  1  0  0  0
 14 36  1  0  0  0
 14 37  1  0  0  0
 15 16  1  0  0  0
 15 17  1  0  0  0
 15 38  1  0  0  0
 16 21  1  0  0  0
 17 18  1  0  0  0
 17 19  1  0  0  0
 17 39  1  0  0  0
 18 40  1  0  0  0
 19 20  1  0  0  0
 19 21  1  0  0  0
 19 41  1  0  0  0
 20 42  1  0  0  0
 21 22  1  0  0  0
 21 43  1  0  0  0
 22 23  1  0  0  0
 22 31  1  0  0  0
 23 24  2  0  0  0
 23 44  1  0  0  0
 24 25  1  0  0  0
 25 26  2  0  0  0
 25 31  1  0  0  0
 26 27  1  0  0  0
 26 28  1  0  0  0
 27 45  1  0  0  0
 27 46  1  0  0  0
 28 29  2  0  0  0
 28 48  1  0  0  0
 29 30  1  0  0  0
 29 47  1  0  0  0
 30 31  2  0  0  0
M  CHG  3   3  -1   7  -1  28   1
M  END
> <s_m_source_file>
/cbio/jclab/home/rustenburg/PFK/Epik-Ligands/Results/InProgress/PHOSPHOMETHYLPHOSPHONIC ACID ADENYLATE ESTER/pH_4.0/PHOSPHOMETHYLPHOSPHONIC ACID ADENYLATE ESTER_pH_4.0-before_epik.mol2

> <i_m_source_file_index>
1

> <r_lp_tautomer_probability>
0.978911883040575

> <r_epik_Ionization_Penalty>
  1.1845

> <r_epik_Ionization_Penalty_Charging>
  0.5524

> <r_epik_Ionization_Penalty_Neutral>
  0.6321

> <r_epik_State_Penalty>
  2.7336

> <r_epik_Charging_Adjusted_Penalty>
3.28604564556115

> <i_epik_Tot_Q>
-1

> <i_epik_Tot_abs_Q>
3

> <s_epik_Chemistry_Notes>
This compound contains an acetal/aminal-like group ( X-CH(R)-Y where X, Y are N, S, or O) that may be acid/base labile, releasing an aldehyde.

$$$$
ACP
                    3D
 Structure written by MMmdl.
 47 49  0  0  1  0            999 V2000
    0.8550   23.2630   12.2680 P   0  0  0  0  0  0
    0.2610   24.0670   11.1550 O   0  0  0  0  0  0
    1.5460   24.2690   13.3220 O   0  5  0  0  0  0
   -0.1310   22.3590   12.9100 O   0  0  0  0  0  0
    3.9600   22.9890   11.4430 P   0  0  0  0  0  0
    4.3120   23.6160   12.7350 O   0  0  0  0  0  0
    3.9240   23.9590   10.3010 O   0  5  0  0  0  0
    2.2840   22.2700   11.6710 C   0  0  0  0  0  0
    5.7430   20.7430   12.1060 P   0  0  0  0  0  0
    4.8310   20.2740   13.1830 O   0  0  0  0  0  0
    7.0060   21.2900   12.6600 O   0  5  0  0  0  0
    5.0120   21.8360   11.1810 O   0  0  0  0  0  0
    6.0310   19.5600   11.0600 O   0  0  0  0  0  0
    4.9790   19.0950   10.1930 C   0  0  0  0  0  0
    5.2560   17.6540    9.8080 C   0  0  1  0  0  0
    6.3740   17.6320    8.8930 O   0  0  0  0  0  0
    5.6520   16.8010   11.0140 C   0  0  1  0  0  0
    5.2040   15.4480   10.8610 O   0  0  0  0  0  0
    7.1700   16.9250   11.0340 C   0  0  1  0  0  0
    7.8570   15.9360   11.8240 O   0  0  0  0  0  0
    7.4740   16.9460    9.5320 C   0  0  2  0  0  0
    8.7090   17.7200    9.2130 N   0  0  0  0  0  0
    8.8950   19.0190    9.4210 C   0  0  0  0  0  0
   10.1830   19.2940    9.1830 N   0  3  0  0  0  0
   10.7990   18.1770    8.8190 C   0  0  0  0  0  0
   12.1150   17.8560    8.4630 C   0  0  0  0  0  0
   13.1040   18.7320    8.5870 N   0  0  0  0  0  0
   12.3770   16.5790    8.1080 N   0  0  0  0  0  0
   11.4290   15.6450    8.1140 C   0  0  0  0  0  0
   10.2040   15.9280    8.4830 N   0  0  0  0  0  0
    9.8490   17.1740    8.8270 C   0  0  0  0  0  0
   -1.0601   22.7695   13.3322 H   0  0  0  0  0  0
    2.4713   21.4406   12.3689 H   0  0  0  0  0  0
    2.0583   21.8657   10.6732 H   0  0  0  0  0  0
    4.0151   19.1594   10.7190 H   0  0  0  0  0  0
    4.9458   19.7204    9.2887 H   0  0  0  0  0  0
    4.3602   17.2441    9.3185 H   0  0  0  0  0  0
    5.1723   17.0686   11.9670 H   0  0  0  0  0  0
    4.1272   15.2252   10.8317 H   0  0  0  0  0  0
    7.5793   17.7731   11.6025 H   0  0  0  0  0  0
    7.6770   15.8755   12.9075 H   0  0  0  0  0  0
    7.5941   15.9232    9.1453 H   0  0  0  0  0  0
    8.1200   19.7380    9.7340 H   0  0  0  0  0  0
   12.8858   19.7706    8.8763 H   0  0  0  0  0  0
   14.1421   18.4196    8.4005 H   0  0  0  0  0  0
   11.6640   14.6120    7.8060 H   0  0  0  0  0  0
   10.5575   20.3212    9.3036 H   0  0  0  0  0  0
  1  2  2  0  0  0
  1  3  1  0  0  0
  1  4  1  0  0  0
  1  8  1  0  0  0
  4 32  1  0  0  0
  5  6  2  0  0  0
  5  7  1  0  0  0
  5  8  1  0  0  0
  5 12  1  0  0  0
  8 33  1  0  0  0
  8 34  1  0  0  0
  9 10  2  0  0  0
  9 11  1  0  0  0
  9 12  1  0  0  0
  9 13  1  0  0  0
 13 14  1  0  0  0
 14 15  1  0  0  0
 14 35  1  0  0  0
 14 36  1  0  0  0
 15 16  1  0  0  0
 15 17  1  0  0  0
 15 37  1  0  0  0
 16 21  1  0  0  0
 17 18  1  0  0  0
 17 19  1  0  0  0
 17 38  1  0  0  0
 18 39  1  0  0  0
 19 20  1  0  0  0
 19 21  1  0  0  0
 19 40  1  0  0  0
 20 41  1  0  0  0
 21 22  1  0  0  0
 21 42  1  0  0  0
 22 23  1  0  0  0
 22 31  1  0  0  0
 23 24  2  0  0  0
 23 43  1  0  0  0
 24 25  1  0  0  0
 24 47  1  0  0  0
 25 26  2  0  0  0
 25 31  1  0  0  0
 26 27  1  0  0  0
 26 28  1  0  0  0
 27 44  1  0  0  0
 27 45  1  0  0  0
 28 29  2  0  0  0
 29 30  1  0  0  0
 29 46  1  0  0  0
 30 31  2  0  0  0
M  CHG  4   3  -1   7  -1  11  -1  24   1
M  END
> <s_m_source_file>
/cbio/jclab/home/rustenburg/PFK/Epik-Ligands/Results/InProgress/PHOSPHOMETHYLPHOSPHONIC ACID ADENYLATE ESTER/pH_4.0/PHOSPHOMETHYLPHOSPHONIC ACID ADENYLATE ESTER_pH_4.0-before_epik.mol2

> <i_m_source_file_index>
1

> <r_epik_Ionization_Penalty>
  2.1670

> <r_epik_Ionization_Penalty_Charging>
  2.1588

> <r_epik_Ionization_Penalty_Neutral>
  0.0082

> <r_epik_State_Penalty>
  2.7942

> <r_epik_Charging_Adjusted_Penalty>
4.95298346892401

> <i_epik_Tot_Q>
-2

> <i_epik_Tot_abs_Q>
4

> <s_epik_Chemistry_Notes>
This compound contains an acetal/aminal-like group ( X-CH(R)-Y where X, Y are N, S, or O) that may be acid/base labile, releasing an aldehyde.

$$$$
ACP
                    3D
 Structure written by MMmdl.
 47 49  0  0  1  0            999 V2000
    0.8550   23.2630   12.2680 P   0  0  0  0  0  0
    0.2610   24.0670   11.1550 O   0  0  0  0  0  0
    1.5460   24.2690   13.3220 O   0  0  0  0  0  0
   -0.1310   22.3590   12.9100 O   0  0  0  0  0  0
    3.9600   22.9890   11.4430 P   0  0  0  0  0  0
    4.3120   23.6160   12.7350 O   0  0  0  0  0  0
    3.9240   23.9590   10.3010 O   0  5  0  0  0  0
    2.2840   22.2700   11.6710 C   0  0  0  0  0  0
    5.7430   20.7430   12.1060 P   0  0  0  0  0  0
    4.8310   20.2740   13.1830 O   0  0  0  0  0  0
    7.0060   21.2900   12.6600 O   0  5  0  0  0  0
    5.0120   21.8360   11.1810 O   0  0  0  0  0  0
    6.0310   19.5600   11.0600 O   0  0  0  0  0  0
    4.9790   19.0950   10.1930 C   0  0  0  0  0  0
    5.2560   17.6540    9.8080 C   0  0  1  0  0  0
    6.3740   17.6320    8.8930 O   0  0  0  0  0  0
    5.6520   16.8010   11.0140 C   0  0  1  0  0  0
    5.2040   15.4480   10.8610 O   0  0  0  0  0  0
    7.1700   16.9250   11.0340 C   0  0  1  0  0  0
    7.8570   15.9360   11.8240 O   0  0  0  0  0  0
    7.4740   16.9460    9.5320 C   0  0  2  0  0  0
    8.7090   17.7200    9.2130 N   0  0  0  0  0  0
    8.8950   19.0190    9.4210 C   0  0  0  0  0  0
   10.1830   19.2940    9.1830 N   0  0  0  0  0  0
   10.7990   18.1770    8.8190 C   0  0  0  0  0  0
   12.1150   17.8560    8.4630 C   0  0  0  0  0  0
   13.1040   18.7320    8.5870 N   0  0  0  0  0  0
   12.3770   16.5790    8.1080 N   0  0  0  0  0  0
   11.4290   15.6450    8.1140 C   0  0  0  0  0  0
   10.2040   15.9280    8.4830 N   0  0  0  0  0  0
    9.8490   17.1740    8.8270 C   0  0  0  0  0  0
    0.9335   25.0073   13.8604 H   0  0  0  0  0  0
   -1.0601   22.7695   13.3322 H   0  0  0  0  0  0
    2.4713   21.4406   12.3689 H   0  0  0  0  0  0
    2.0583   21.8657   10.6732 H   0  0  0  0  0  0
    4.0151   19.1594   10.7190 H   0  0  0  0  0  0
    4.9458   19.7204    9.2887 H   0  0  0  0  0  0
    4.3602   17.2441    9.3185 H   0  0  0  0  0  0
    5.1723   17.0686   11.9670 H   0  0  0  0  0  0
    4.1272   15.2252   10.8317 H   0  0  0  0  0  0
    7.5793   17.7731   11.6025 H   0  0  0  0  0  0
    7.6770   15.8755   12.9075 H   0  0  0  0  0  0
    7.5941   15.9232    9.1453 H   0  0  0  0  0  0
    8.1200   19.7380    9.7340 H   0  0  0  0  0  0
   12.8858   19.7706    8.8763 H   0  0  0  0  0  0
   14.1421   18.4196    8.4005 H   0  0  0  0  0  0
   11.6640   14.6120    7.8060 H   0  0  0  0  0  0
  1  2  2  0  0  0
  1  3  1  0  0  0
  1  4  1  0  0  0
  1  8  1  0  0  0
  3 32  1  0  0  0
  4 33  1  0  0  0
  5  6  2  0  0  0
  5  7  1  0  0  0
  5  8  1  0  0  0
  5 12  1  0  0  0
  8 34  1  0  0  0
  8 35  1  0  0  0
  9 10  2  0  0  0
  9 11  1  0  0  0
  9 12  1  0  0  0
  9 13  1  0  0  0
 13 14  1  0  0  0
 14 15  1  0  0  0
 14 36  1  0  0  0
 14 37  1  0  0  0
 15 16  1  0  0  0
 15 17  1  0  0  0
 15 38  1  0  0  0
 16 21  1  0  0  0
 17 18  1  0  0  0
 17 19  1  0  0  0
 17 39  1  0  0  0
 18 40  1  0  0  0
 19 20  1  0  0  0
 19 21  1  0  0  0
 19 41  1  0  0  0
 20 42  1  0  0  0
 21 22  1  0  0  0
 21 43  1  0  0  0
 22 23  1  0  0  0
 22 31  1  0  0  0
 23 24  2  0  0  0
 23 44  1  0  0  0
 24 25  1  0  0  0
 25 26  2  0  0  0
 25 31  1  0  0  0
 26 27  1  0  0  0
 26 28  1  0  0  0
 27 45  1  0  0  0
 27 46  1  0  0  0
 28 29  2  0  0  0
 29 30  1  0  0  0
 29 47  1  0  0  0
 30 31  2  0  0  0
M  CHG  2   7  -1  11  -1
M  END
> <s_m_source_file>
/cbio/jclab/home/rustenburg/PFK/Epik-Ligands/Results/InProgress/PHOSPHOMETHYLPHOSPHONIC ACID ADENYLATE ESTER/pH_4.0/PHOSPHOMETHYLPHOSPHONIC ACID ADENYLATE ESTER_pH_4.0-before_epik.mol2

> <i_m_source_file_index>
1

> <r_epik_Ionization_Penalty>
  2.8770

> <r_epik_Ionization_Penalty_Charging>
  0.2382

> <r_epik_Ionization_Penalty_Neutral>
  2.6388

> <r_epik_State_Penalty>
  3.7018

> <r_epik_Charging_Adjusted_Penalty>
3.94003255268326

> <i_epik_Tot_Q>
-2

> <i_epik_Tot_abs_Q>
2

> <s_epik_Chemistry_Notes>
This compound contains an acetal/aminal-like group ( X-CH(R)-Y where X, Y are N, S, or O) that may be acid/base labile, releasing an aldehyde.

$$$$
ACP
                    3D
 Structure written by MMmdl.
 48 50  0  0  1  0            999 V2000
    0.8550   23.2630   12.2680 P   0  0  0  0  0  0
    0.2610   24.0670   11.1550 O   0  0  0  0  0  0
    1.5460   24.2690   13.3220 O   0  0  0  0  0  0
   -0.1310   22.3590   12.9100 O   0  0  0  0  0  0
    3.9600   22.9890   11.4430 P   0  0  0  0  0  0
    4.3120   23.6160   12.7350 O   0  0  0  0  0  0
    3.9240   23.9590   10.3010 O   0  5  0  0  0  0
    2.2840   22.2700   11.6710 C   0  0  0  0  0  0
    5.7430   20.7430   12.1060 P   0  0  2  0  0  0
    4.8310   20.2740   13.1830 O   0  0  0  0  0  0
    7.0060   21.2900   12.6600 O   0  0  0  0  0  0
    5.0120   21.8360   11.1810 O   0  0  0  0  0  0
    6.0310   19.5600   11.0600 O   0  0  0  0  0  0
    4.9790   19.0950   10.1930 C   0  0  0  0  0  0
    5.2560   17.6540    9.8080 C   0  0  1  0  0  0
    6.3740   17.6320    8.8930 O   0  0  0  0  0  0
    5.6520   16.8010   11.0140 C   0  0  1  0  0  0
    5.2040   15.4480   10.8610 O   0  0  0  0  0  0
    7.1700   16.9250   11.0340 C   0  0  1  0  0  0
    7.8570   15.9360   11.8240 O   0  0  0  0  0  0
    7.4740   16.9460    9.5320 C   0  0  2  0  0  0
    8.7090   17.7200    9.2130 N   0  0  0  0  0  0
    8.8950   19.0190    9.4210 C   0  0  0  0  0  0
   10.1830   19.2940    9.1830 N   0  0  0  0  0  0
   10.7990   18.1770    8.8190 C   0  0  0  0  0  0
   12.1150   17.8560    8.4630 C   0  0  0  0  0  0
   13.1040   18.7320    8.5870 N   0  0  0  0  0  0
   12.3770   16.5790    8.1080 N   0  0  0  0  0  0
   11.4290   15.6450    8.1140 C   0  0  0  0  0  0
   10.2040   15.9280    8.4830 N   0  0  0  0  0  0
    9.8490   17.1740    8.8270 C   0  0  0  0  0  0
    0.9335   25.0073   13.8604 H   0  0  0  0  0  0
   -1.0601   22.7695   13.3322 H   0  0  0  0  0  0
    2.4713   21.4406   12.3689 H   0  0  0  0  0  0
    2.0583   21.8657   10.6732 H   0  0  0  0  0  0
    6.9756   22.1095   13.3931 H   0  0  0  0  0  0
    4.0151   19.1594   10.7190 H   0  0  0  0  0  0
    4.9458   19.7204    9.2887 H   0  0  0  0  0  0
    4.3602   17.2441    9.3185 H   0  0  0  0  0  0
    5.1723   17.0686   11.9670 H   0  0  0  0  0  0
    4.1272   15.2252   10.8317 H   0  0  0  0  0  0
    7.5793   17.7731   11.6025 H   0  0  0  0  0  0
    7.6770   15.8755   12.9075 H   0  0  0  0  0  0
    7.5941   15.9232    9.1453 H   0  0  0  0  0  0
    8.1200   19.7380    9.7340 H   0  0  0  0  0  0
   12.8858   19.7706    8.8763 H   0  0  0  0  0  0
   14.1421   18.4196    8.4005 H   0  0  0  0  0  0
   11.6640   14.6120    7.8060 H   0  0  0  0  0  0
  1  2  2  0  0  0
  1  3  1  0  0  0
  1  4  1  0  0  0
  1  8  1  0  0  0
  3 32  1  0  0  0
  4 33  1  0  0  0
  5  6  2  0  0  0
  5  7  1  0  0  0
  5  8  1  0  0  0
  5 12  1  0  0  0
  8 34  1  0  0  0
  8 35  1  0  0  0
  9 10  2  0  0  0
  9 11  1  0  0  0
  9 12  1  0  0  0
  9 13  1  0  0  0
 11 36  1  0  0  0
 13 14  1  0  0  0
 14 15  1  0  0  0
 14 37  1  0  0  0
 14 38  1  0  0  0
 15 16  1  0  0  0
 15 17  1  0  0  0
 15 39  1  0  0  0
 16 21  1  0  0  0
 17 18  1  0  0  0
 17 19  1  0  0  0
 17 40  1  0  0  0
 18 41  1  0  0  0
 19 20  1  0  0  0
 19 21  1  0  0  0
 19 42  1  0  0  0
 20 43  1  0  0  0
 21 22  1  0  0  0
 21 44  1  0  0  0
 22 23  1  0  0  0
 22 31  1  0  0  0
 23 24  2  0  0  0
 23 45  1  0  0  0
 24 25  1  0  0  0
 25 26  2  0  0  0
 25 31  1  0  0  0
 26 27  1  0  0  0
 26 28  1  0  0  0
 27 46  1  0  0  0
 27 47  1  0  0  0
 28 29  2  0  0  0
 29 30  1  0  0  0
 29 48  1  0  0  0
 30 31  2  0  0  0
M  CHG  1   7  -1
M  END
> <s_m_source_file>
/cbio/jclab/home/rustenburg/PFK/Epik-Ligands/Results/InProgress/PHOSPHOMETHYLPHOSPHONIC ACID ADENYLATE ESTER/pH_4.0/PHOSPHOMETHYLPHOSPHONIC ACID ADENYLATE ESTER_pH_4.0-before_epik.mol2

> <i_m_source_file_index>
1

> <r_epik_Ionization_Penalty>
  3.3628

> <r_epik_Ionization_Penalty_Charging>
  0.0002

> <r_epik_Ionization_Penalty_Neutral>
  3.3626

> <r_epik_State_Penalty>
  4.1615

> <r_epik_Charging_Adjusted_Penalty>
4.16167689508666

> <i_epik_Tot_Q>
-1

> <i_epik_Tot_abs_Q>
1

> <s_epik_Chemistry_Notes>
This compound contains an acetal/aminal-like group ( X-CH(R)-Y where X, Y are N, S, or O) that may be acid/base labile, releasing an aldehyde.

$$$$
ACP
                    3D
 Structure written by MMmdl.
 47 49  0  0  1  0            999 V2000
    0.8550   23.2630   12.2680 P   0  0  0  0  0  0
    0.2610   24.0670   11.1550 O   0  0  0  0  0  0
    1.5460   24.2690   13.3220 O   0  5  0  0  0  0
   -0.1310   22.3590   12.9100 O   0  0  0  0  0  0
    3.9600   22.9890   11.4430 P   0  0  2  0  0  0
    4.3120   23.6160   12.7350 O   0  0  0  0  0  0
    3.9240   23.9590   10.3010 O   0  0  0  0  0  0
    2.2840   22.2700   11.6710 C   0  0  0  0  0  0
    5.7430   20.7430   12.1060 P   0  0  0  0  0  0
    4.8310   20.2740   13.1830 O   0  0  0  0  0  0
    7.0060   21.2900   12.6600 O   0  5  0  0  0  0
    5.0120   21.8360   11.1810 O   0  0  0  0  0  0
    6.0310   19.5600   11.0600 O   0  0  0  0  0  0
    4.9790   19.0950   10.1930 C   0  0  0  0  0  0
    5.2560   17.6540    9.8080 C   0  0  1  0  0  0
    6.3740   17.6320    8.8930 O   0  0  0  0  0  0
    5.6520   16.8010   11.0140 C   0  0  1  0  0  0
    5.2040   15.4480   10.8610 O   0  0  0  0  0  0
    7.1700   16.9250   11.0340 C   0  0  1  0  0  0
    7.8570   15.9360   11.8240 O   0  0  0  0  0  0
    7.4740   16.9460    9.5320 C   0  0  2  0  0  0
    8.7090   17.7200    9.2130 N   0  0  0  0  0  0
    8.8950   19.0190    9.4210 C   0  0  0  0  0  0
   10.1830   19.2940    9.1830 N   0  0  0  0  0  0
   10.7990   18.1770    8.8190 C   0  0  0  0  0  0
   12.1150   17.8560    8.4630 C   0  0  0  0  0  0
   13.1040   18.7320    8.5870 N   0  0  0  0  0  0
   12.3770   16.5790    8.1080 N   0  0  0  0  0  0
   11.4290   15.6450    8.1140 C   0  0  0  0  0  0
   10.2040   15.9280    8.4830 N   0  0  0  0  0  0
    9.8490   17.1740    8.8270 C   0  0  0  0  0  0
   -1.0601   22.7695   13.3322 H   0  0  0  0  0  0
    3.2406   24.8203   10.3323 H   0  0  0  0  0  0
    2.4713   21.4406   12.3689 H   0  0  0  0  0  0
    2.0583   21.8657   10.6732 H   0  0  0  0  0  0
    4.0151   19.1594   10.7190 H   0  0  0  0  0  0
    4.9458   19.7204    9.2887 H   0  0  0  0  0  0
    4.3602   17.2441    9.3185 H   0  0  0  0  0  0
    5.1723   17.0686   11.9670 H   0  0  0  0  0  0
    4.1272   15.2252   10.8317 H   0  0  0  0  0  0
    7.5793   17.7731   11.6025 H   0  0  0  0  0  0
    7.6770   15.8755   12.9075 H   0  0  0  0  0  0
    7.5941   15.9232    9.1453 H   0  0  0  0  0  0
    8.1200   19.7380    9.7340 H   0  0  0  0  0  0
   12.8858   19.7706    8.8763 H   0  0  0  0  0  0
   14.1421   18.4196    8.4005 H   0  0  0  0  0  0
   11.6640   14.6120    7.8060 H   0  0  0  0  0  0
  1  2  2  0  0  0
  1  3  1  0  0  0
  1  4  1  0  0  0
  1  8  1  0  0  0
  4 32  1  0  0  0
  5  6  2  0  0  0
  5  7  1  0  0  0
  5  8  1  0  0  0
  5 12  1  0  0  0
  7 33  1  0  0  0
  8 34  1  0  0  0
  8 35  1  0  0  0
  9 10  2  0  0  0
  9 11  1  0  0  0
  9 12  1  0  0  0
  9 13  1  0  0  0
 13 14  1  0  0  0
 14 15  1  0  0  0
 14 36  1  0  0  0
 14 37  1  0  0  0
 15 16  1  0  0  0
 15 17  1  0  0  0
 15 38  1  0  0  0
 16 21  1  0  0  0
 17 18  1  0  0  0
 17 19  1  0  0  0
 17 39  1  0  0  0
 18 40  1  0  0  0
 19 20  1  0  0  0
 19 21  1  0  0  0
 19 41  1  0  0  0
 20 42  1  0  0  0
 21 22  1  0  0  0
 21 43  1  0  0  0
 22 23  1  0  0  0
 22 31  1  0  0  0
 23 24  2  0  0  0
 23 44  1  0  0  0
 24 25  1  0  0  0
 25 26  2  0  0  0
 25 31  1  0  0  0
 26 27  1  0  0  0
 26 28  1  0  0  0
 27 45  1  0  0  0
 27 46  1  0  0  0
 28 29  2  0  0  0
 29 30  1  0  0  0
 29 47  1  0  0  0
 30 31  2  0  0  0
M  CHG  2   3  -1  11  -1
M  END
> <s_m_source_file>
/cbio/jclab/home/rustenburg/PFK/Epik-Ligands/Results/InProgress/PHOSPHOMETHYLPHOSPHONIC ACID ADENYLATE ESTER/pH_4.0/PHOSPHOMETHYLPHOSPHONIC ACID ADENYLATE ESTER_pH_4.0-before_epik.mol2

> <i_m_source_file_index>
1

> <r_epik_Ionization_Penalty>
  4.2717

> <r_epik_Ionization_Penalty_Charging>
  0.1050

> <r_epik_Ionization_Penalty_Neutral>
  4.1667

> <r_epik_State_Penalty>
  5.1672

> <r_epik_Charging_Adjusted_Penalty>
5.27217044367715

> <i_epik_Tot_Q>
-2

> <i_epik_Tot_abs_Q>
2

> <s_epik_Chemistry_Notes>
This compound contains an acetal/aminal-like group ( X-CH(R)-Y where X, Y are N, S, or O) that may be acid/base labile, releasing an aldehyde.

$$$$
ACP
                    3D
 Structure written by MMmdl.
 48 50  0  0  1  0            999 V2000
    0.8550   23.2630   12.2680 P   0  0  0  0  0  0
    0.2610   24.0670   11.1550 O   0  0  0  0  0  0
    1.5460   24.2690   13.3220 O   0  0  0  0  0  0
   -0.1310   22.3590   12.9100 O   0  0  0  0  0  0
    3.9600   22.9890   11.4430 P   0  0  0  0  0  0
    4.3120   23.6160   12.7350 O   0  0  0  0  0  0
    3.9240   23.9590   10.3010 O   0  5  0  0  0  0
    2.2840   22.2700   11.6710 C   0  0  0  0  0  0
    5.7430   20.7430   12.1060 P   0  0  0  0  0  0
    4.8310   20.2740   13.1830 O   0  0  0  0  0  0
    7.0060   21.2900   12.6600 O   0  5  0  0  0  0
    5.0120   21.8360   11.1810 O   0  0  0  0  0  0
    6.0310   19.5600   11.0600 O   0  0  0  0  0  0
    4.9790   19.0950   10.1930 C   0  0  0  0  0  0
    5.2560   17.6540    9.8080 C   0  0  1  0  0  0
    6.3740   17.6320    8.8930 O   0  0  0  0  0  0
    5.6520   16.8010   11.0140 C   0  0  1  0  0  0
    5.2040   15.4480   10.8610 O   0  0  0  0  0  0
    7.1700   16.9250   11.0340 C   0  0  1  0  0  0
    7.8570   15.9360   11.8240 O   0  0  0  0  0  0
    7.4740   16.9460    9.5320 C   0  0  2  0  0  0
    8.7090   17.7200    9.2130 N   0  0  0  0  0  0
    8.8950   19.0190    9.4210 C   0  0  0  0  0  0
   10.1830   19.2940    9.1830 N   0  0  0  0  0  0
   10.7990   18.1770    8.8190 C   0  0  0  0  0  0
   12.1150   17.8560    8.4630 C   0  0  0  0  0  0
   13.1040   18.7320    8.5870 N   0  0  0  0  0  0
   12.3770   16.5790    8.1080 N   0  3  0  0  0  0
   11.4290   15.6450    8.1140 C   0  0  0  0  0  0
   10.2040   15.9280    8.4830 N   0  0  0  0  0  0
    9.8490   17.1740    8.8270 C   0  0  0  0  0  0
    0.9335   25.0073   13.8604 H   0  0  0  0  0  0
   -1.0601   22.7695   13.3322 H   0  0  0  0  0  0
    2.4713   21.4406   12.3689 H   0  0  0  0  0  0
    2.0583   21.8657   10.6732 H   0  0  0  0  0  0
    4.0151   19.1594   10.7190 H   0  0  0  0  0  0
    4.9458   19.7204    9.2887 H   0  0  0  0  0  0
    4.3602   17.2441    9.3185 H   0  0  0  0  0  0
    5.1723   17.0686   11.9670 H   0  0  0  0  0  0
    4.1272   15.2252   10.8317 H   0  0  0  0  0  0
    7.5793   17.7731   11.6025 H   0  0  0  0  0  0
    7.6770   15.8755   12.9075 H   0  0  0  0  0  0
    7.5941   15.9232    9.1453 H   0  0  0  0  0  0
    8.1200   19.7380    9.7340 H   0  0  0  0  0  0
   12.8858   19.7706    8.8763 H   0  0  0  0  0  0
   14.1421   18.4196    8.4005 H   0  0  0  0  0  0
   11.6640   14.6120    7.8060 H   0  0  0  0  0  0
   13.3941   16.2902    7.8044 H   0  0  0  0  0  0
  1  2  2  0  0  0
  1  3  1  0  0  0
  1  4  1  0  0  0
  1  8  1  0  0  0
  3 32  1  0  0  0
  4 33  1  0  0  0
  5  6  2  0  0  0
  5  7  1  0  0  0
  5  8  1  0  0  0
  5 12  1  0  0  0
  8 34  1  0  0  0
  8 35  1  0  0  0
  9 10  2  0  0  0
  9 11  1  0  0  0
  9 12  1  0  0  0
  9 13  1  0  0  0
 13 14  1  0  0  0
 14 15  1  0  0  0
 14 36  1  0  0  0
 14 37  1  0  0  0
 15 16  1  0  0  0
 15 17  1  0  0  0
 15 38  1  0  0  0
 16 21  1  0  0  0
 17 18  1  0  0  0
 17 19  1  0  0  0
 17 39  1  0  0  0
 18 40  1  0  0  0
 19 20  1  0  0  0
 19 21  1  0  0  0
 19 41  1  0  0  0
 20 42  1  0  0  0
 21 22  1  0  0  0
 21 43  1  0  0  0
 22 23  1  0  0  0
 22 31  1  0  0  0
 23 24  2  0  0  0
 23 44  1  0  0  0
 24 25  1  0  0  0
 25 26  2  0  0  0
 25 31  1  0  0  0
 26 27  1  0  0  0
 26 28  1  0  0  0
 27 45  1  0  0  0
 27 46  1  0  0  0
 28 29  2  0  0  0
 28 48  1  0  0  0
 29 30  1  0  0  0
 29 47  1  0  0  0
 30 31  2  0  0  0
M  CHG  3   7  -1  11  -1  28   1
M  END
> <s_m_source_file>
/cbio/jclab/home/rustenburg/PFK/Epik-Ligands/Results/InProgress/PHOSPHOMETHYLPHOSPHONIC ACID ADENYLATE ESTER/pH_4.0/PHOSPHOMETHYLPHOSPHONIC ACID ADENYLATE ESTER_pH_4.0-before_epik.mol2

> <i_m_source_file_index>
1

> <r_epik_Ionization_Penalty>
  3.0962

> <r_epik_Ionization_Penalty_Charging>
  0.7795

> <r_epik_Ionization_Penalty_Neutral>
  2.3167

> <r_epik_State_Penalty>
  5.2644

> <r_epik_Charging_Adjusted_Penalty>
6.04390352762456

> <i_epik_Tot_Q>
-1

> <i_epik_Tot_abs_Q>
3

> <s_epik_Chemistry_Notes>
This compound contains an acetal/aminal-like group ( X-CH(R)-Y where X, Y are N, S, or O) that may be acid/base labile, releasing an aldehyde.

$$$$
ACP
                    3D
 Structure written by MMmdl.
 48 50  0  0  1  0            999 V2000
    0.8550   23.2630   12.2680 P   0  0  0  0  0  0
    0.2610   24.0670   11.1550 O   0  0  0  0  0  0
    1.5460   24.2690   13.3220 O   0  0  0  0  0  0
   -0.1310   22.3590   12.9100 O   0  0  0  0  0  0
    3.9600   22.9890   11.4430 P   0  0  0  0  0  0
    4.3120   23.6160   12.7350 O   0  0  0  0  0  0
    3.9240   23.9590   10.3010 O   0  5  0  0  0  0
    2.2840   22.2700   11.6710 C   0  0  0  0  0  0
    5.7430   20.7430   12.1060 P   0  0  0  0  0  0
    4.8310   20.2740   13.1830 O   0  0  0  0  0  0
    7.0060   21.2900   12.6600 O   0  5  0  0  0  0
    5.0120   21.8360   11.1810 O   0  0  0  0  0  0
    6.0310   19.5600   11.0600 O   0  0  0  0  0  0
    4.9790   19.0950   10.1930 C   0  0  0  0  0  0
    5.2560   17.6540    9.8080 C   0  0  1  0  0  0
    6.3740   17.6320    8.8930 O   0  0  0  0  0  0
    5.6520   16.8010   11.0140 C   0  0  1  0  0  0
    5.2040   15.4480   10.8610 O   0  0  0  0  0  0
    7.1700   16.9250   11.0340 C   0  0  1  0  0  0
    7.8570   15.9360   11.8240 O   0  0  0  0  0  0
    7.4740   16.9460    9.5320 C   0  0  2  0  0  0
    8.7090   17.7200    9.2130 N   0  0  0  0  0  0
    8.8950   19.0190    9.4210 C   0  0  0  0  0  0
   10.1830   19.2940    9.1830 N   0  3  0  0  0  0
   10.7990   18.1770    8.8190 C   0  0  0  0  0  0
   12.1150   17.8560    8.4630 C   0  0  0  0  0  0
   13.1040   18.7320    8.5870 N   0  0  0  0  0  0
   12.3770   16.5790    8.1080 N   0  0  0  0  0  0
   11.4290   15.6450    8.1140 C   0  0  0  0  0  0
   10.2040   15.9280    8.4830 N   0  0  0  0  0  0
    9.8490   17.1740    8.8270 C   0  0  0  0  0  0
    0.9335   25.0073   13.8604 H   0  0  0  0  0  0
   -1.0601   22.7695   13.3322 H   0  0  0  0  0  0
    2.4713   21.4406   12.3689 H   0  0  0  0  0  0
    2.0583   21.8657   10.6732 H   0  0  0  0  0  0
    4.0151   19.1594   10.7190 H   0  0  0  0  0  0
    4.9458   19.7204    9.2887 H   0  0  0  0  0  0
    4.3602   17.2441    9.3185 H   0  0  0  0  0  0
    5.1723   17.0686   11.9670 H   0  0  0  0  0  0
    4.1272   15.2252   10.8317 H   0  0  0  0  0  0
    7.5793   17.7731   11.6025 H   0  0  0  0  0  0
    7.6770   15.8755   12.9075 H   0  0  0  0  0  0
    7.5941   15.9232    9.1453 H   0  0  0  0  0  0
    8.1200   19.7380    9.7340 H   0  0  0  0  0  0
   12.8858   19.7706    8.8763 H   0  0  0  0  0  0
   14.1421   18.4196    8.4005 H   0  0  0  0  0  0
   11.6640   14.6120    7.8060 H   0  0  0  0  0  0
   10.5575   20.3212    9.3036 H   0  0  0  0  0  0
  1  2  2  0  0  0
  1  3  1  0  0  0
  1  4  1  0  0  0
  1  8  1  0  0  0
  3 32  1  0  0  0
  4 33  1  0  0  0
  5  6  2  0  0  0
  5  7  1  0  0  0
  5  8  1  0  0  0
  5 12  1  0  0  0
  8 34  1  0  0  0
  8 35  1  0  0  0
  9 10  2  0  0  0
  9 11  1  0  0  0
  9 12  1  0  0  0
  9 13  1  0  0  0
 13 14  1  0  0  0
 14 15  1  0  0  0
 14 36  1  0  0  0
 14 37  1  0  0  0
 15 16  1  0  0  0
 15 17  1  0  0  0
 15 38  1  0  0  0
 16 21  1  0  0  0
 17 18  1  0  0  0
 17 19  1  0  0  0
 17 39  1  0  0  0
 18 40  1  0  0  0
 19 20  1  0  0  0
 19 21  1  0  0  0
 19 41  1  0  0  0
 20 42  1  0  0  0
 21 22  1  0  0  0
 21 43  1  0  0  0
 22 23  1  0  0  0
 22 31  1  0  0  0
 23 24  2  0  0  0
 23 44  1  0  0  0
 24 25  1  0  0  0
 24 48  1  0  0  0
 25 26  2  0  0  0
 25 31  1  0  0  0
 26 27  1  0  0  0
 26 28  1  0  0  0
 27 45  1  0  0  0
 27 46  1  0  0  0
 28 29  2  0  0  0
 29 30  1  0  0  0
 29 47  1  0  0  0
 30 31  2  0  0  0
M  CHG  3   7  -1  11  -1  24   1
M  END
> <s_m_source_file>
/cbio/jclab/home/rustenburg/PFK/Epik-Ligands/Results/InProgress/PHOSPHOMETHYLPHOSPHONIC ACID ADENYLATE ESTER/pH_4.0/PHOSPHOMETHYLPHOSPHONIC ACID ADENYLATE ESTER_pH_4.0-before_epik.mol2

> <i_m_source_file_index>
1

> <r_epik_Ionization_Penalty>
  4.4488

> <r_epik_Ionization_Penalty_Charging>
  2.1306

> <r_epik_Ionization_Penalty_Neutral>
  2.3182

> <r_epik_State_Penalty>
  5.3945

> <r_epik_Charging_Adjusted_Penalty>
7.52510782466881

> <i_epik_Tot_Q>
-1

> <i_epik_Tot_abs_Q>
3

> <s_epik_Chemistry_Notes>
This compound contains an acetal/aminal-like group ( X-CH(R)-Y where X, Y are N, S, or O) that may be acid/base labile, releasing an aldehyde.

$$$$
ACP
                    3D
 Structure written by MMmdl.
 49 51  0  0  1  0            999 V2000
    0.8550   23.2630   12.2680 P   0  0  0  0  0  0
    0.2610   24.0670   11.1550 O   0  0  0  0  0  0
    1.5460   24.2690   13.3220 O   0  0  0  0  0  0
   -0.1310   22.3590   12.9100 O   0  0  0  0  0  0
    3.9600   22.9890   11.4430 P   0  0  0  0  0  0
    4.3120   23.6160   12.7350 O   0  0  0  0  0  0
    3.9240   23.9590   10.3010 O   0  5  0  0  0  0
    2.2840   22.2700   11.6710 C   0  0  0  0  0  0
    5.7430   20.7430   12.1060 P   0  0  2  0  0  0
    4.8310   20.2740   13.1830 O   0  0  0  0  0  0
    7.0060   21.2900   12.6600 O   0  0  0  0  0  0
    5.0120   21.8360   11.1810 O   0  0  0  0  0  0
    6.0310   19.5600   11.0600 O   0  0  0  0  0  0
    4.9790   19.0950   10.1930 C   0  0  0  0  0  0
    5.2560   17.6540    9.8080 C   0  0  1  0  0  0
    6.3740   17.6320    8.8930 O   0  0  0  0  0  0
    5.6520   16.8010   11.0140 C   0  0  1  0  0  0
    5.2040   15.4480   10.8610 O   0  0  0  0  0  0
    7.1700   16.9250   11.0340 C   0  0  1  0  0  0
    7.8570   15.9360   11.8240 O   0  0  0  0  0  0
    7.4740   16.9460    9.5320 C   0  0  2  0  0  0
    8.7090   17.7200    9.2130 N   0  0  0  0  0  0
    8.8950   19.0190    9.4210 C   0  0  0  0  0  0
   10.1830   19.2940    9.1830 N   0  0  0  0  0  0
   10.7990   18.1770    8.8190 C   0  0  0  0  0  0
   12.1150   17.8560    8.4630 C   0  0  0  0  0  0
   13.1040   18.7320    8.5870 N   0  0  0  0  0  0
   12.3770   16.5790    8.1080 N   0  3  0  0  0  0
   11.4290   15.6450    8.1140 C   0  0  0  0  0  0
   10.2040   15.9280    8.4830 N   0  0  0  0  0  0
    9.8490   17.1740    8.8270 C   0  0  0  0  0  0
    0.9335   25.0073   13.8604 H   0  0  0  0  0  0
   -1.0601   22.7695   13.3322 H   0  0  0  0  0  0
    2.4713   21.4406   12.3689 H   0  0  0  0  0  0
    2.0583   21.8657   10.6732 H   0  0  0  0  0  0
    6.9756   22.1095   13.3931 H   0  0  0  0  0  0
    4.0151   19.1594   10.7190 H   0  0  0  0  0  0
    4.9458   19.7204    9.2887 H   0  0  0  0  0  0
    4.3602   17.2441    9.3185 H   0  0  0  0  0  0
    5.1723   17.0686   11.9670 H   0  0  0  0  0  0
    4.1272   15.2252   10.8317 H   0  0  0  0  0  0
    7.5793   17.7731   11.6025 H   0  0  0  0  0  0
    7.6770   15.8755   12.9075 H   0  0  0  0  0  0
    7.5941   15.9232    9.1453 H   0  0  0  0  0  0
    8.1200   19.7380    9.7340 H   0  0  0  0  0  0
   12.8858   19.7706    8.8763 H   0  0  0  0  0  0
   14.1421   18.4196    8.4005 H   0  0  0  0  0  0
   11.6640   14.6120    7.8060 H   0  0  0  0  0  0
   13.3941   16.2902    7.8044 H   0  0  0  0  0  0
  1  2  2  0  0  0
  1  3  1  0  0  0
  1  4  1  0  0  0
  1  8  1  0  0  0
  3 32  1  0  0  0
  4 33  1  0  0  0
  5  6  2  0  0  0
  5  7  1  0  0  0
  5  8  1  0  0  0
  5 12  1  0  0  0
  8 34  1  0  0  0
  8 35  1  0  0  0
  9 10  2  0  0  0
  9 11  1  0  0  0
  9 12  1  0  0  0
  9 13  1  0  0  0
 11 36  1  0  0  0
 13 14  1  0  0  0
 14 15  1  0  0  0
 14 37  1  0  0  0
 14 38  1  0  0  0
 15 16  1  0  0  0
 15 17  1  0  0  0
 15 39  1  0  0  0
 16 21  1  0  0  0
 17 18  1  0  0  0
 17 19  1  0  0  0
 17 40  1  0  0  0
 18 41  1  0  0  0
 19 20  1  0  0  0
 19 21  1  0  0  0
 19 42  1  0  0  0
 20 43  1  0  0  0
 21 22  1  0  0  0
 21 44  1  0  0  0
 22 23  1  0  0  0
 22 31  1  0  0  0
 23 24  2  0  0  0
 23 45  1  0  0  0
 24 25  1  0  0  0
 25 26  2  0  0  0
 25 31  1  0  0  0
 26 27  1  0  0  0
 26 28  1  0  0  0
 27 46  1  0  0  0
 27 47  1  0  0  0
 28 29  2  0  0  0
 28 49  1  0  0  0
 29 30  1  0  0  0
 29 48  1  0  0  0
 30 31  2  0  0  0
M  CHG  2   7  -1  28   1
M  END
> <s_m_source_file>
/cbio/jclab/home/rustenburg/PFK/Epik-Ligands/Results/InProgress/PHOSPHOMETHYLPHOSPHONIC ACID ADENYLATE ESTER/pH_4.0/PHOSPHOMETHYLPHOSPHONIC ACID ADENYLATE ESTER_pH_4.0-before_epik.mol2

> <i_m_source_file_index>
1

> <r_lp_tautomer_probability>
0.978911883040575

> <r_epik_Ionization_Penalty>
  3.5820

> <r_epik_Ionization_Penalty_Charging>
  0.5415

> <r_epik_Ionization_Penalty_Neutral>
  3.0405

> <r_epik_State_Penalty>
  5.6602

> <r_epik_Charging_Adjusted_Penalty>
6.20170331717926

> <i_epik_Tot_Q>
0

> <i_epik_Tot_abs_Q>
2

> <s_epik_Chemistry_Notes>
This compound contains an acetal/aminal-like group ( X-CH(R)-Y where X, Y are N, S, or O) that may be acid/base labile, releasing an aldehyde.

$$$$
ACP
                    3D
 Structure written by MMmdl.
 49 51  0  0  1  0            999 V2000
    0.8550   23.2630   12.2680 P   0  0  0  0  0  0
    0.2610   24.0670   11.1550 O   0  0  0  0  0  0
    1.5460   24.2690   13.3220 O   0  0  0  0  0  0
   -0.1310   22.3590   12.9100 O   0  0  0  0  0  0
    3.9600   22.9890   11.4430 P   0  0  0  0  0  0
    4.3120   23.6160   12.7350 O   0  0  0  0  0  0
    3.9240   23.9590   10.3010 O   0  5  0  0  0  0
    2.2840   22.2700   11.6710 C   0  0  0  0  0  0
    5.7430   20.7430   12.1060 P   0  0  2  0  0  0
    4.8310   20.2740   13.1830 O   0  0  0  0  0  0
    7.0060   21.2900   12.6600 O   0  0  0  0  0  0
    5.0120   21.8360   11.1810 O   0  0  0  0  0  0
    6.0310   19.5600   11.0600 O   0  0  0  0  0  0
    4.9790   19.0950   10.1930 C   0  0  0  0  0  0
    5.2560   17.6540    9.8080 C   0  0  1  0  0  0
    6.3740   17.6320    8.8930 O   0  0  0  0  0  0
    5.6520   16.8010   11.0140 C   0  0  1  0  0  0
    5.2040   15.4480   10.8610 O   0  0  0  0  0  0
    7.1700   16.9250   11.0340 C   0  0  1  0  0  0
    7.8570   15.9360   11.8240 O   0  0  0  0  0  0
    7.4740   16.9460    9.5320 C   0  0  2  0  0  0
    8.7090   17.7200    9.2130 N   0  0  0  0  0  0
    8.8950   19.0190    9.4210 C   0  0  0  0  0  0
   10.1830   19.2940    9.1830 N   0  3  0  0  0  0
   10.7990   18.1770    8.8190 C   0  0  0  0  0  0
   12.1150   17.8560    8.4630 C   0  0  0  0  0  0
   13.1040   18.7320    8.5870 N   0  0  0  0  0  0
   12.3770   16.5790    8.1080 N   0  0  0  0  0  0
   11.4290   15.6450    8.1140 C   0  0  0  0  0  0
   10.2040   15.9280    8.4830 N   0  0  0  0  0  0
    9.8490   17.1740    8.8270 C   0  0  0  0  0  0
    0.9335   25.0073   13.8604 H   0  0  0  0  0  0
   -1.0601   22.7695   13.3322 H   0  0  0  0  0  0
    2.4713   21.4406   12.3689 H   0  0  0  0  0  0
    2.0583   21.8657   10.6732 H   0  0  0  0  0  0
    6.9756   22.1095   13.3931 H   0  0  0  0  0  0
    4.0151   19.1594   10.7190 H   0  0  0  0  0  0
    4.9458   19.7204    9.2887 H   0  0  0  0  0  0
    4.3602   17.2441    9.3185 H   0  0  0  0  0  0
    5.1723   17.0686   11.9670 H   0  0  0  0  0  0
    4.1272   15.2252   10.8317 H   0  0  0  0  0  0
    7.5793   17.7731   11.6025 H   0  0  0  0  0  0
    7.6770   15.8755   12.9075 H   0  0  0  0  0  0
    7.5941   15.9232    9.1453 H   0  0  0  0  0  0
    8.1200   19.7380    9.7340 H   0  0  0  0  0  0
   12.8858   19.7706    8.8763 H   0  0  0  0  0  0
   14.1421   18.4196    8.4005 H   0  0  0  0  0  0
   11.6640   14.6120    7.8060 H   0  0  0  0  0  0
   10.5575   20.3212    9.3036 H   0  0  0  0  0  0
  1  2  2  0  0  0
  1  3  1  0  0  0
  1  4  1  0  0  0
  1  8  1  0  0  0
  3 32  1  0  0  0
  4 33  1  0  0  0
  5  6  2  0  0  0
  5  7  1  0  0  0
  5  8  1  0  0  0
  5 12  1  0  0  0
  8 34  1  0  0  0
  8 35  1  0  0  0
  9 10  2  0  0  0
  9 11  1  0  0  0
  9 12  1  0  0  0
  9 13  1  0  0  0
 11 36  1  0  0  0
 13 14  1  0  0  0
 14 15  1  0  0  0
 14 37  1  0  0  0
 14 38  1  0  0  0
 15 16  1  0  0  0
 15 17  1  0  0  0
 15 39  1  0  0  0
 16 21  1  0  0  0
 17 18  1  0  0  0
 17 19  1  0  0  0
 17 40  1  0  0  0
 18 41  1  0  0  0
 19 20  1  0  0  0
 19 21  1  0  0  0
 19 42  1  0  0  0
 20 43  1  0  0  0
 21 22  1  0  0  0
 21 44  1  0  0  0
 22 23  1  0  0  0
 22 31  1  0  0  0
 23 24  2  0  0  0
 23 45  1  0  0  0
 24 25  1  0  0  0
 24 49  1  0  0  0
 25 26  2  0  0  0
 25 31  1  0  0  0
 26 27  1  0  0  0
 26 28  1  0  0  0
 27 46  1  0  0  0
 27 47  1  0  0  0
 28 29  2  0  0  0
 29 30  1  0  0  0
 29 48  1  0  0  0
 30 31  2  0  0  0
M  CHG  2   7  -1  24   1
M  END
> <s_m_source_file>
/cbio/jclab/home/rustenburg/PFK/Epik-Ligands/Results/InProgress/PHOSPHOMETHYLPHOSPHONIC ACID ADENYLATE ESTER/pH_4.0/PHOSPHOMETHYLPHOSPHONIC ACID ADENYLATE ESTER_pH_4.0-before_epik.mol2

> <i_m_source_file_index>
1

> <r_epik_Ionization_Penalty>
  4.9409

> <r_epik_Ionization_Penalty_Charging>
  1.8947

> <r_epik_Ionization_Penalty_Neutral>
  3.0462

> <r_epik_State_Penalty>
  5.6931

> <r_epik_Charging_Adjusted_Penalty>
7.58770738090849

> <i_epik_Tot_Q>
0

> <i_epik_Tot_abs_Q>
2

> <s_epik_Chemistry_Notes>
This compound contains an acetal/aminal-like group ( X-CH(R)-Y where X, Y are N, S, or O) that may be acid/base labile, releasing an aldehyde.

$$$$
