@<TRIPOS>MOLECULE
[[5-(6-aminopurin-9-yl)-3,4-dihydroxy-tetrahydrofuran-2-yl]methoxy-oxido-phosphoryl]oxy-[[hydroxy(oxido)phosphoryl]methyl]phosphinate
   46    48     1     0     0
SMALL
USER_CHARGES

@<TRIPOS>ATOM
      1 PG          0.8550   23.2630   12.2680 P.3       1 ACP         1.3841
      2 O1G         0.2610   24.0670   11.1550 O.2       1 ACP        -0.9006
      3 O2G         1.5460   24.2690   13.3220 O.3       1 ACP        -0.9006
      4 O3G        -0.1310   22.3590   12.9100 O.3       1 ACP        -0.8023
      5 PB          3.9600   22.9890   11.4430 P.3       1 ACP         1.5336
      6 O1B         4.3120   23.6160   12.7350 O.2       1 ACP        -0.9161
      7 O2B         3.9240   23.9590   10.3010 O.3       1 ACP        -0.9161
      8 C3B         2.2840   22.2700   11.6710 C.3       1 ACP        -0.5620
      9 PA          5.7430   20.7430   12.1060 P.3       1 ACP         1.6150
     10 O1A         4.8310   20.2740   13.1830 O.2       1 ACP        -0.8998
     11 O2A         7.0060   21.2900   12.6600 O.3       1 ACP        -0.8998
     12 O3A         5.0120   21.8360   11.1810 O.3       1 ACP        -0.8200
     13 O5'         6.0310   19.5600   11.0600 O.3       1 ACP        -0.5568
     14 C5'         4.9790   19.0950   10.1930 C.3       1 ACP         0.2326
     15 C4'         5.2560   17.6540    9.8080 C.3       1 ACP         0.1150
     16 O4'         6.3740   17.6320    8.8930 O.3       1 ACP        -0.3893
     17 C3'         5.6520   16.8010   11.0140 C.3       1 ACP         0.1209
     18 O3'         5.2040   15.4480   10.8610 O.3       1 ACP        -0.5313
     19 C2'         7.1700   16.9250   11.0340 C.3       1 ACP         0.0502
     20 O2'         7.8570   15.9360   11.8240 O.3       1 ACP        -0.5729
     21 C1'         7.4740   16.9460    9.5320 C.3       1 ACP         0.4020
     22 N9          8.7090   17.7200    9.2130 N.pl3     1 ACP        -0.6751
     23 C8          8.8950   19.0190    9.4210 C.ar      1 ACP         0.5826
     24 N7         10.1830   19.2940    9.1830 N.ar      1 ACP        -0.5895
     25 C5         10.7990   18.1770    8.8190 C.ar      1 ACP        -0.2012
     26 C6         12.1150   17.8560    8.4630 C.ar      1 ACP         0.7046
     27 N6         13.1040   18.7320    8.5870 N.pl3     1 ACP        -0.9335
     28 N1         12.3770   16.5790    8.1080 N.ar      1 ACP        -0.8066
     29 C2         11.4290   15.6450    8.1140 C.ar      1 ACP         0.6478
     30 N3         10.2040   15.9280    8.4830 N.ar      1 ACP        -0.7184
     31 C4          9.8490   17.1740    8.8270 C.ar      1 ACP         0.5572
     32 HOG3       -1.0601   22.7695   13.3322 H         1 ACP         0.4087
     33 H3B1        2.4713   21.4406   12.3689 H         1 ACP         0.0678
     34 H3B2        2.0583   21.8657   10.6732 H         1 ACP         0.0678
     35 H5'1        4.0151   19.1594   10.7190 H         1 ACP         0.0272
     36 H5'2        4.9458   19.7204    9.2887 H         1 ACP         0.0272
     37 H4'         4.3602   17.2441    9.3185 H         1 ACP         0.1247
     38 H3'         5.1723   17.0686   11.9670 H         1 ACP         0.0465
     39 HO3'        4.1272   15.2252   10.8317 H         1 ACP         0.3809
     40 H2'         7.5793   17.7731   11.6025 H         1 ACP         0.0333
     41 HO2'        7.6770   15.8755   12.9075 H         1 ACP         0.3932
     42 H1'         7.5941   15.9232    9.1453 H         1 ACP         0.0840
     43 H8          8.1200   19.7380    9.7340 H         1 ACP         0.1290
     44 HN61       12.8858   19.7706    8.8763 H         1 ACP         0.4125
     45 HN62       14.1421   18.4196    8.4005 H         1 ACP         0.4125
     46 H2         11.6640   14.6120    7.8060 H         1 ACP         0.0309
@<TRIPOS>BOND
     1    1    2 2
     2    1    3 1
     3    1    4 1
     4    1    8 1
     5    4   32 1
     6    5    6 2
     7    5    7 1
     8    5    8 1
     9    5   12 1
    10    8   33 1
    11    8   34 1
    12    9   10 2
    13    9   11 1
    14    9   12 1
    15    9   13 1
    16   13   14 1
    17   14   15 1
    18   14   35 1
    19   14   36 1
    20   15   16 1
    21   15   17 1
    22   15   37 1
    23   16   21 1
    24   17   18 1
    25   17   19 1
    26   17   38 1
    27   18   39 1
    28   19   20 1
    29   19   21 1
    30   19   40 1
    31   20   41 1
    32   21   22 1
    33   21   42 1
    34   22   23 ar
    35   22   31 ar
    36   23   24 ar
    37   23   43 1
    38   24   25 ar
    39   25   26 ar
    40   25   31 ar
    41   26   27 1
    42   26   28 ar
    43   27   44 1
    44   27   45 1
    45   28   29 ar
    46   29   30 ar
    47   29   46 1
    48   30   31 ar
@<TRIPOS>SUBSTRUCTURE
     1 ACP         1 GROUP   0 A     ****
@<TRIPOS>MOLECULE
[[5-(6-aminopurin-9-yl)-3,4-dihydroxy-tetrahydrofuran-2-yl]methoxy-hydroxy-phosphoryl]oxy-[[hydroxy(oxido)phosphoryl]methyl]phosphinate
   47    49     1     0     0
SMALL
USER_CHARGES

@<TRIPOS>ATOM
      1 PG          0.8550   23.2630   12.2680 P.3       1 ACP         1.3716
      2 O1G         0.2610   24.0670   11.1550 O.2       1 ACP        -0.8819
      3 O2G         1.5460   24.2690   13.3220 O.3       1 ACP        -0.8819
      4 O3G        -0.1310   22.3590   12.9100 O.3       1 ACP        -0.7953
      5 PB          3.9600   22.9890   11.4430 P.3       1 ACP         1.5175
      6 O1B         4.3120   23.6160   12.7350 O.2       1 ACP        -0.8713
      7 O2B         3.9240   23.9590   10.3010 O.3       1 ACP        -0.8713
      8 C3B         2.2840   22.2700   11.6710 C.3       1 ACP        -0.5767
      9 PA          5.7430   20.7430   12.1060 P.3       1 ACP         1.7805
     10 O1A         4.8310   20.2740   13.1830 O.2       1 ACP        -0.8827
     11 O2A         7.0060   21.2900   12.6600 O.3       1 ACP        -0.7868
     12 O3A         5.0120   21.8360   11.1810 O.3       1 ACP        -0.7762
     13 O5'         6.0310   19.5600   11.0600 O.3       1 ACP        -0.5898
     14 C5'         4.9790   19.0950   10.1930 C.3       1 ACP         0.1870
     15 C4'         5.2560   17.6540    9.8080 C.3       1 ACP         0.1295
     16 O4'         6.3740   17.6320    8.8930 O.3       1 ACP        -0.4043
     17 C3'         5.6520   16.8010   11.0140 C.3       1 ACP         0.1377
     18 O3'         5.2040   15.4480   10.8610 O.3       1 ACP        -0.5393
     19 C2'         7.1700   16.9250   11.0340 C.3       1 ACP         0.0539
     20 O2'         7.8570   15.9360   11.8240 O.3       1 ACP        -0.5735
     21 C1'         7.4740   16.9460    9.5320 C.3       1 ACP         0.4056
     22 N9          8.7090   17.7200    9.2130 N.pl3     1 ACP        -0.6863
     23 C8          8.8950   19.0190    9.4210 C.ar      1 ACP         0.5639
     24 N7         10.1830   19.2940    9.1830 N.ar      1 ACP        -0.5717
     25 C5         10.7990   18.1770    8.8190 C.ar      1 ACP        -0.2103
     26 C6         12.1150   17.8560    8.4630 C.ar      1 ACP         0.7278
     27 N6         13.1040   18.7320    8.5870 N.pl3     1 ACP        -0.9426
     28 N1         12.3770   16.5790    8.1080 N.ar      1 ACP        -0.8009
     29 C2         11.4290   15.6450    8.1140 C.ar      1 ACP         0.6646
     30 N3         10.2040   15.9280    8.4830 N.ar      1 ACP        -0.7288
     31 C4          9.8490   17.1740    8.8270 C.ar      1 ACP         0.5655
     32 HOG3       -1.0601   22.7695   13.3322 H         1 ACP         0.4151
     33 H3B1        2.4713   21.4406   12.3689 H         1 ACP         0.0859
     34 H3B2        2.0583   21.8657   10.6732 H         1 ACP         0.0859
     35 HOA2        6.9756   22.1095   13.3931 H         1 ACP         0.4454
     36 H5'1        4.0151   19.1594   10.7190 H         1 ACP         0.0572
     37 H5'2        4.9458   19.7204    9.2887 H         1 ACP         0.0572
     38 H4'         4.3602   17.2441    9.3185 H         1 ACP         0.1215
     39 H3'         5.1723   17.0686   11.9670 H         1 ACP         0.0656
     40 HO3'        4.1272   15.2252   10.8317 H         1 ACP         0.3932
     41 H2'         7.5793   17.7731   11.6025 H         1 ACP         0.0459
     42 HO2'        7.6770   15.8755   12.9075 H         1 ACP         0.4019
     43 H1'         7.5941   15.9232    9.1453 H         1 ACP         0.0948
     44 H8          8.1200   19.7380    9.7340 H         1 ACP         0.1045
     45 HN61       12.8858   19.7706    8.8763 H         1 ACP         0.4265
     46 HN62       14.1421   18.4196    8.4005 H         1 ACP         0.4265
     47 H2         11.6640   14.6120    7.8060 H         1 ACP         0.0392
@<TRIPOS>BOND
     1    1    2 2
     2    1    3 1
     3    1    4 1
     4    1    8 1
     5    4   32 1
     6    5    6 2
     7    5    7 1
     8    5    8 1
     9    5   12 1
    10    8   33 1
    11    8   34 1
    12    9   10 2
    13    9   11 1
    14    9   12 1
    15    9   13 1
    16   11   35 1
    17   13   14 1
    18   14   15 1
    19   14   36 1
    20   14   37 1
    21   15   16 1
    22   15   17 1
    23   15   38 1
    24   16   21 1
    25   17   18 1
    26   17   19 1
    27   17   39 1
    28   18   40 1
    29   19   20 1
    30   19   21 1
    31   19   41 1
    32   20   42 1
    33   21   22 1
    34   21   43 1
    35   22   23 ar
    36   22   31 ar
    37   23   24 ar
    38   23   44 1
    39   24   25 ar
    40   25   26 ar
    41   25   31 ar
    42   26   27 1
    43   26   28 ar
    44   27   45 1
    45   27   46 1
    46   28   29 ar
    47   29   30 ar
    48   29   47 1
    49   30   31 ar
@<TRIPOS>SUBSTRUCTURE
     1 ACP         1 GROUP   0 A     ****
@<TRIPOS>MOLECULE
[[5-(6-amino-7,8-dihydropurin-8-ylium-9-yl)-3,4-dihydroxy-tetrahydrofuran-2-yl]methoxy-hydroxy-phosphoryl]oxy-[[hydroxy(oxido)phosphoryl]methyl]phosphinate
   48    50     1     0     0
SMALL
USER_CHARGES

@<TRIPOS>ATOM
      1 PG          0.8550   23.2630   12.2680 P.3       1 ACP         1.3720
      2 O1G         0.2610   24.0670   11.1550 O.2       1 ACP        -0.8810
      3 O2G         1.5460   24.2690   13.3220 O.3       1 ACP        -0.8810
      4 O3G        -0.1310   22.3590   12.9100 O.3       1 ACP        -0.7893
      5 PB          3.9600   22.9890   11.4430 P.3       1 ACP         1.5291
      6 O1B         4.3120   23.6160   12.7350 O.2       1 ACP        -0.8690
      7 O2B         3.9240   23.9590   10.3010 O.3       1 ACP        -0.8690
      8 C3B         2.2840   22.2700   11.6710 C.3       1 ACP        -0.5836
      9 PA          5.7430   20.7430   12.1060 P.3       1 ACP         1.7805
     10 O1A         4.8310   20.2740   13.1830 O.2       1 ACP        -0.8714
     11 O2A         7.0060   21.2900   12.6600 O.3       1 ACP        -0.7990
     12 O3A         5.0120   21.8360   11.1810 O.3       1 ACP        -0.7752
     13 O5'         6.0310   19.5600   11.0600 O.3       1 ACP        -0.5923
     14 C5'         4.9790   19.0950   10.1930 C.3       1 ACP         0.1458
     15 C4'         5.2560   17.6540    9.8080 C.3       1 ACP         0.1135
     16 O4'         6.3740   17.6320    8.8930 O.3       1 ACP        -0.3889
     17 C3'         5.6520   16.8010   11.0140 C.3       1 ACP         0.0967
     18 O3'         5.2040   15.4480   10.8610 O.3       1 ACP        -0.5719
     19 C2'         7.1700   16.9250   11.0340 C.3       1 ACP         0.0836
     20 O2'         7.8570   15.9360   11.8240 O.3       1 ACP        -0.5839
     21 C1'         7.4740   16.9460    9.5320 C.3       1 ACP         0.3929
     22 N9          8.7090   17.7200    9.2130 N.pl3     1 ACP        -0.5551
     23 C8          8.8950   19.0190    9.4210 C.cat     1 ACP         0.2948
     24 N7         10.1830   19.2940    9.1830 N.pl3     1 ACP        -0.5183
     25 C5         10.7990   18.1770    8.8190 C.ar      1 ACP        -0.2625
     26 C6         12.1150   17.8560    8.4630 C.ar      1 ACP         0.7490
     27 N6         13.1040   18.7320    8.5870 N.pl3     1 ACP        -0.9394
     28 N1         12.3770   16.5790    8.1080 N.ar      1 ACP        -0.7539
     29 C2         11.4290   15.6450    8.1140 C.ar      1 ACP         0.7058
     30 N3         10.2040   15.9280    8.4830 N.ar      1 ACP        -0.6749
     31 C4          9.8490   17.1740    8.8270 C.ar      1 ACP         0.6192
     32 HOG3       -1.0601   22.7695   13.3322 H         1 ACP         0.4125
     33 H3B1        2.4713   21.4406   12.3689 H         1 ACP         0.0944
     34 H3B2        2.0583   21.8657   10.6732 H         1 ACP         0.0944
     35 HOA2        6.9756   22.1095   13.3931 H         1 ACP         0.4535
     36 H5'1        4.0151   19.1594   10.7190 H         1 ACP         0.0819
     37 H5'2        4.9458   19.7204    9.2887 H         1 ACP         0.0819
     38 H4'         4.3602   17.2441    9.3185 H         1 ACP         0.1262
     39 H3'         5.1723   17.0686   11.9670 H         1 ACP         0.0704
     40 HO3'        4.1272   15.2252   10.8317 H         1 ACP         0.4335
     41 H2'         7.5793   17.7731   11.6025 H         1 ACP         0.0701
     42 HO2'        7.6770   15.8755   12.9075 H         1 ACP         0.4485
     43 H1'         7.5941   15.9232    9.1453 H         1 ACP         0.1441
     44 H8          8.1200   19.7380    9.7340 H         1 ACP         0.2925
     45 HN61       12.8858   19.7706    8.8763 H         1 ACP         0.4445
     46 HN62       14.1421   18.4196    8.4005 H         1 ACP         0.4445
     47 H2         11.6640   14.6120    7.8060 H         1 ACP         0.0813
     48 H48        10.5575   20.3212    9.3036 H         1 ACP         0.5027
@<TRIPOS>BOND
     1    1    2 2
     2    1    3 1
     3    1    4 1
     4    1    8 1
     5    4   32 1
     6    5    6 2
     7    5    7 1
     8    5    8 1
     9    5   12 1
    10    8   33 1
    11    8   34 1
    12    9   10 2
    13    9   11 1
    14    9   12 1
    15    9   13 1
    16   11   35 1
    17   13   14 1
    18   14   15 1
    19   14   36 1
    20   14   37 1
    21   15   16 1
    22   15   17 1
    23   15   38 1
    24   16   21 1
    25   17   18 1
    26   17   19 1
    27   17   39 1
    28   18   40 1
    29   19   20 1
    30   19   21 1
    31   19   41 1
    32   20   42 1
    33   21   22 1
    34   21   43 1
    35   22   23 ar
    36   22   31 ar
    37   23   24 ar
    38   23   44 1
    39   24   25 ar
    40   24   48 1
    41   25   26 ar
    42   25   31 ar
    43   26   27 1
    44   26   28 ar
    45   27   45 1
    46   27   46 1
    47   28   29 ar
    48   29   30 ar
    49   29   47 1
    50   30   31 ar
@<TRIPOS>SUBSTRUCTURE
     1 ACP         1 GROUP   0 A     ****
@<TRIPOS>MOLECULE
[[5-(6-amino-1,8-dihydropurine-6,8-diylium-7-id-9-yl)-3,4-dihydroxy-tetrahydrofuran-2-yl]methoxy-oxido-phosphoryl]oxy-[[hydroxy(oxido)phosphoryl]methyl]phosphinate
   47    49     1     0     0
SMALL
USER_CHARGES

@<TRIPOS>ATOM
      1 PG          0.8550   23.2630   12.2680 P.3       1 ACP        -1.2804
      2 O1G         0.2610   24.0670   11.1550 O.2       1 ACP         0.3195
      3 O2G         1.5460   24.2690   13.3220 O.3       1 ACP         0.3195
      4 O3G        -0.1310   22.3590   12.9100 O.3       1 ACP         0.0326
      5 PB          3.9600   22.9890   11.4430 P.3       1 ACP        -1.2804
      6 O1B         4.3120   23.6160   12.7350 O.2       1 ACP         0.3195
      7 O2B         3.9240   23.9590   10.3010 O.3       1 ACP         0.3195
      8 C3B         2.2840   22.2700   11.6710 C.3       1 ACP         0.8942
      9 PA          5.7430   20.7430   12.1060 P.3       1 ACP        -1.1062
     10 O1A         4.8310   20.2740   13.1830 O.2       1 ACP         0.3195
     11 O2A         7.0060   21.2900   12.6600 O.3       1 ACP         0.3195
     12 O3A         5.0120   21.8360   11.1810 O.3       1 ACP         0.4672
     13 O5'         6.0310   19.5600   11.0600 O.3       1 ACP         0.1618
     14 C5'         4.9790   19.0950   10.1930 C.3       1 ACP         0.1504
     15 C4'         5.2560   17.6540    9.8080 C.3       1 ACP         0.1111
     16 O4'         6.3740   17.6320    8.8930 O.3       1 ACP        -0.1436
     17 C3'         5.6520   16.8010   11.0140 C.3       1 ACP         0.1111
     18 O3'         5.2040   15.4480   10.8610 O.3       1 ACP        -0.2728
     19 C2'         7.1700   16.9250   11.0340 C.3       1 ACP         0.1111
     20 O2'         7.8570   15.9360   11.8240 O.3       1 ACP        -0.2728
     21 C1'         7.4740   16.9460    9.5320 C.3       1 ACP         0.2693
     22 N9          8.7090   17.7200    9.2130 N.pl3     1 ACP        -0.3222
     23 C8          8.8950   19.0190    9.4210 C.cat     1 ACP         0.1640
     24 N7         10.1830   19.2940    9.1830 N.ar      1 ACP        -0.1640
     25 C5         10.7990   18.1770    8.8190 C.ar      1 ACP         0.0820
     26 C6         12.1150   17.8560    8.4630 C.cat     1 ACP         0.1640
     27 N6         13.1040   18.7320    8.5870 N.pl3     1 ACP        -0.4916
     28 N1         12.3770   16.5790    8.1080 N.pl3     1 ACP        -0.4390
     29 C2         11.4290   15.6450    8.1140 C.ar      1 ACP         0.5691
     30 N3         10.2040   15.9280    8.4830 N.ar      1 ACP        -0.4283
     31 C4          9.8490   17.1740    8.8270 C.ar      1 ACP         0.2226
     32 HOG3       -1.0601   22.7695   13.3322 H         1 ACP         0.2010
     33 H3B1        2.4713   21.4406   12.3689 H         1 ACP        -0.0393
     34 H3B2        2.0583   21.8657   10.6732 H         1 ACP        -0.0393
     35 H5'1        4.0151   19.1594   10.7190 H         1 ACP        -0.0393
     36 H5'2        4.9458   19.7204    9.2887 H         1 ACP        -0.0393
     37 H4'         4.3602   17.2441    9.3185 H         1 ACP        -0.0393
     38 H3'         5.1723   17.0686   11.9670 H         1 ACP        -0.0393
     39 HO3'        4.1272   15.2252   10.8317 H         1 ACP         0.2010
     40 H2'         7.5793   17.7731   11.6025 H         1 ACP        -0.0393
     41 HO2'        7.6770   15.8755   12.9075 H         1 ACP         0.2010
     42 H1'         7.5941   15.9232    9.1453 H         1 ACP        -0.0393
     43 H8          8.1200   19.7380    9.7340 H         1 ACP         0.0000
     44 HN61       12.8858   19.7706    8.8763 H         1 ACP         0.2048
     45 HN62       14.1421   18.4196    8.4005 H         1 ACP         0.2048
     46 H2         11.6640   14.6120    7.8060 H         1 ACP        -0.1292
     47 H47        13.3941   16.2902    7.8044 H         1 ACP         0.2048
@<TRIPOS>BOND
     1    1    2 2
     2    1    3 1
     3    1    4 1
     4    1    8 1
     5    4   32 1
     6    5    6 2
     7    5    7 1
     8    5    8 1
     9    5   12 1
    10    8   33 1
    11    8   34 1
    12    9   10 2
    13    9   11 1
    14    9   12 1
    15    9   13 1
    16   13   14 1
    17   14   15 1
    18   14   35 1
    19   14   36 1
    20   15   16 1
    21   15   17 1
    22   15   37 1
    23   16   21 1
    24   17   18 1
    25   17   19 1
    26   17   38 1
    27   18   39 1
    28   19   20 1
    29   19   21 1
    30   19   40 1
    31   20   41 1
    32   21   22 1
    33   21   42 1
    34   22   23 ar
    35   22   31 ar
    36   23   24 ar
    37   23   43 1
    38   24   25 ar
    39   25   26 ar
    40   25   31 ar
    41   26   27 1
    42   26   28 ar
    43   27   44 1
    44   27   45 1
    45   28   29 ar
    46   28   47 1
    47   29   30 ar
    48   29   46 1
    49   30   31 ar
@<TRIPOS>SUBSTRUCTURE
     1 ACP         1 GROUP   0 A     ****
@<TRIPOS>MOLECULE
[[5-(6-amino-1,8-dihydropurine-6,8-diylium-7-id-9-yl)-3,4-dihydroxy-tetrahydrofuran-2-yl]methoxy-hydroxy-phosphoryl]oxy-[[hydroxy(oxido)phosphoryl]methyl]phosphinate
   48    50     1     0     0
SMALL
USER_CHARGES

@<TRIPOS>ATOM
      1 PG          0.8550   23.2630   12.2680 P.3       1 ACP         1.3752
      2 O1G         0.2610   24.0670   11.1550 O.2       1 ACP        -0.8816
      3 O2G         1.5460   24.2690   13.3220 O.3       1 ACP        -0.8816
      4 O3G        -0.1310   22.3590   12.9100 O.3       1 ACP        -0.7903
      5 PB          3.9600   22.9890   11.4430 P.3       1 ACP         1.5257
      6 O1B         4.3120   23.6160   12.7350 O.2       1 ACP        -0.8730
      7 O2B         3.9240   23.9590   10.3010 O.3       1 ACP        -0.8730
      8 C3B         2.2840   22.2700   11.6710 C.3       1 ACP        -0.5822
      9 PA          5.7430   20.7430   12.1060 P.3       1 ACP         1.7803
     10 O1A         4.8310   20.2740   13.1830 O.2       1 ACP        -0.8736
     11 O2A         7.0060   21.2900   12.6600 O.3       1 ACP        -0.7984
     12 O3A         5.0120   21.8360   11.1810 O.3       1 ACP        -0.7763
     13 O5'         6.0310   19.5600   11.0600 O.3       1 ACP        -0.5927
     14 C5'         4.9790   19.0950   10.1930 C.3       1 ACP         0.1349
     15 C4'         5.2560   17.6540    9.8080 C.3       1 ACP         0.1151
     16 O4'         6.3740   17.6320    8.8930 O.3       1 ACP        -0.3857
     17 C3'         5.6520   16.8010   11.0140 C.3       1 ACP         0.0978
     18 O3'         5.2040   15.4480   10.8610 O.3       1 ACP        -0.5800
     19 C2'         7.1700   16.9250   11.0340 C.3       1 ACP         0.0885
     20 O2'         7.8570   15.9360   11.8240 O.3       1 ACP        -0.5877
     21 C1'         7.4740   16.9460    9.5320 C.3       1 ACP         0.3822
     22 N9          8.7090   17.7200    9.2130 N.pl3     1 ACP        -0.4391
     23 C8          8.8950   19.0190    9.4210 C.cat     1 ACP         0.1869
     24 N7         10.1830   19.2940    9.1830 N.ar      1 ACP        -0.2730
     25 C5         10.7990   18.1770    8.8190 C.ar      1 ACP        -0.1385
     26 C6         12.1150   17.8560    8.4630 C.cat     1 ACP         0.4818
     27 N6         13.1040   18.7320    8.5870 N.pl3     1 ACP        -0.8277
     28 N1         12.3770   16.5790    8.1080 N.pl3     1 ACP        -0.6982
     29 C2         11.4290   15.6450    8.1140 C.ar      1 ACP         0.6213
     30 N3         10.2040   15.9280    8.4830 N.ar      1 ACP        -0.5099
     31 C4          9.8490   17.1740    8.8270 C.ar      1 ACP         0.2813
     32 HOG3       -1.0601   22.7695   13.3322 H         1 ACP         0.4118
     33 H3B1        2.4713   21.4406   12.3689 H         1 ACP         0.0929
     34 H3B2        2.0583   21.8657   10.6732 H         1 ACP         0.0929
     35 HOA2        6.9756   22.1095   13.3931 H         1 ACP         0.4544
     36 H5'1        4.0151   19.1594   10.7190 H         1 ACP         0.0887
     37 H5'2        4.9458   19.7204    9.2887 H         1 ACP         0.0887
     38 H4'         4.3602   17.2441    9.3185 H         1 ACP         0.1198
     39 H3'         5.1723   17.0686   11.9670 H         1 ACP         0.0796
     40 HO3'        4.1272   15.2252   10.8317 H         1 ACP         0.4356
     41 H2'         7.5793   17.7731   11.6025 H         1 ACP         0.0714
     42 HO2'        7.6770   15.8755   12.9075 H         1 ACP         0.4430
     43 H1'         7.5941   15.9232    9.1453 H         1 ACP         0.1194
     44 H8          8.1200   19.7380    9.7340 H         1 ACP         0.2736
     45 HN61       12.8858   19.7706    8.8763 H         1 ACP         0.4770
     46 HN62       14.1421   18.4196    8.4005 H         1 ACP         0.4770
     47 H2         11.6640   14.6120    7.8060 H         1 ACP         0.0919
     48 H48        13.3941   16.2902    7.8044 H         1 ACP         0.4736
@<TRIPOS>BOND
     1    1    2 2
     2    1    3 1
     3    1    4 1
     4    1    8 1
     5    4   32 1
     6    5    6 2
     7    5    7 1
     8    5    8 1
     9    5   12 1
    10    8   33 1
    11    8   34 1
    12    9   10 2
    13    9   11 1
    14    9   12 1
    15    9   13 1
    16   11   35 1
    17   13   14 1
    18   14   15 1
    19   14   36 1
    20   14   37 1
    21   15   16 1
    22   15   17 1
    23   15   38 1
    24   16   21 1
    25   17   18 1
    26   17   19 1
    27   17   39 1
    28   18   40 1
    29   19   20 1
    30   19   21 1
    31   19   41 1
    32   20   42 1
    33   21   22 1
    34   21   43 1
    35   22   23 ar
    36   22   31 ar
    37   23   24 ar
    38   23   44 1
    39   24   25 ar
    40   25   26 ar
    41   25   31 ar
    42   26   27 1
    43   26   28 ar
    44   27   45 1
    45   27   46 1
    46   28   29 ar
    47   28   48 1
    48   29   30 ar
    49   29   47 1
    50   30   31 ar
@<TRIPOS>SUBSTRUCTURE
     1 ACP         1 GROUP   0 A     ****
@<TRIPOS>MOLECULE
[[5-(6-amino-7,8-dihydropurin-8-ylium-9-yl)-3,4-dihydroxy-tetrahydrofuran-2-yl]methoxy-oxido-phosphoryl]oxy-[[hydroxy(oxido)phosphoryl]methyl]phosphinate
   47    49     1     0     0
SMALL
USER_CHARGES

@<TRIPOS>ATOM
      1 PG          0.8550   23.2630   12.2680 P.3       1 ACP         1.3755
      2 O1G         0.2610   24.0670   11.1550 O.2       1 ACP        -0.8970
      3 O2G         1.5460   24.2690   13.3220 O.3       1 ACP        -0.8970
      4 O3G        -0.1310   22.3590   12.9100 O.3       1 ACP        -0.7959
      5 PB          3.9600   22.9890   11.4430 P.3       1 ACP         1.5194
      6 O1B         4.3120   23.6160   12.7350 O.2       1 ACP        -0.8958
      7 O2B         3.9240   23.9590   10.3010 O.3       1 ACP        -0.8958
      8 C3B         2.2840   22.2700   11.6710 C.3       1 ACP        -0.5612
      9 PA          5.7430   20.7430   12.1060 P.3       1 ACP         1.6019
     10 O1A         4.8310   20.2740   13.1830 O.2       1 ACP        -0.9040
     11 O2A         7.0060   21.2900   12.6600 O.3       1 ACP        -0.9040
     12 O3A         5.0120   21.8360   11.1810 O.3       1 ACP        -0.8156
     13 O5'         6.0310   19.5600   11.0600 O.3       1 ACP        -0.5465
     14 C5'         4.9790   19.0950   10.1930 C.3       1 ACP         0.2108
     15 C4'         5.2560   17.6540    9.8080 C.3       1 ACP         0.0552
     16 O4'         6.3740   17.6320    8.8930 O.3       1 ACP        -0.3428
     17 C3'         5.6520   16.8010   11.0140 C.3       1 ACP         0.0750
     18 O3'         5.2040   15.4480   10.8610 O.3       1 ACP        -0.6066
     19 C2'         7.1700   16.9250   11.0340 C.3       1 ACP         0.1185
     20 O2'         7.8570   15.9360   11.8240 O.3       1 ACP        -0.5858
     21 C1'         7.4740   16.9460    9.5320 C.3       1 ACP         0.3826
     22 N9          8.7090   17.7200    9.2130 N.pl3     1 ACP        -0.5729
     23 C8          8.8950   19.0190    9.4210 C.cat     1 ACP         0.3288
     24 N7         10.1830   19.2940    9.1830 N.pl3     1 ACP        -0.5338
     25 C5         10.7990   18.1770    8.8190 C.ar      1 ACP        -0.2581
     26 C6         12.1150   17.8560    8.4630 C.ar      1 ACP         0.7413
     27 N6         13.1040   18.7320    8.5870 N.pl3     1 ACP        -0.9512
     28 N1         12.3770   16.5790    8.1080 N.ar      1 ACP        -0.7699
     29 C2         11.4290   15.6450    8.1140 C.ar      1 ACP         0.6898
     30 N3         10.2040   15.9280    8.4830 N.ar      1 ACP        -0.6800
     31 C4          9.8490   17.1740    8.8270 C.ar      1 ACP         0.6129
     32 HOG3       -1.0601   22.7695   13.3322 H         1 ACP         0.4199
     33 H3B1        2.4713   21.4406   12.3689 H         1 ACP         0.0672
     34 H3B2        2.0583   21.8657   10.6732 H         1 ACP         0.0672
     35 H5'1        4.0151   19.1594   10.7190 H         1 ACP         0.0277
     36 H5'2        4.9458   19.7204    9.2887 H         1 ACP         0.0277
     37 H4'         4.3602   17.2441    9.3185 H         1 ACP         0.1249
     38 H3'         5.1723   17.0686   11.9670 H         1 ACP         0.0564
     39 HO3'        4.1272   15.2252   10.8317 H         1 ACP         0.4511
     40 H2'         7.5793   17.7731   11.6025 H         1 ACP         0.0716
     41 HO2'        7.6770   15.8755   12.9075 H         1 ACP         0.4454
     42 H1'         7.5941   15.9232    9.1453 H         1 ACP         0.1310
     43 H8          8.1200   19.7380    9.7340 H         1 ACP         0.3565
     44 HN61       12.8858   19.7706    8.8763 H         1 ACP         0.4414
     45 HN62       14.1421   18.4196    8.4005 H         1 ACP         0.4414
     46 H2         11.6640   14.6120    7.8060 H         1 ACP         0.0676
     47 H47        10.5575   20.3212    9.3036 H         1 ACP         0.5052
@<TRIPOS>BOND
     1    1    2 2
     2    1    3 1
     3    1    4 1
     4    1    8 1
     5    4   32 1
     6    5    6 2
     7    5    7 1
     8    5    8 1
     9    5   12 1
    10    8   33 1
    11    8   34 1
    12    9   10 2
    13    9   11 1
    14    9   12 1
    15    9   13 1
    16   13   14 1
    17   14   15 1
    18   14   35 1
    19   14   36 1
    20   15   16 1
    21   15   17 1
    22   15   37 1
    23   16   21 1
    24   17   18 1
    25   17   19 1
    26   17   38 1
    27   18   39 1
    28   19   20 1
    29   19   21 1
    30   19   40 1
    31   20   41 1
    32   21   22 1
    33   21   42 1
    34   22   23 ar
    35   22   31 ar
    36   23   24 ar
    37   23   43 1
    38   24   25 ar
    39   24   47 1
    40   25   26 ar
    41   25   31 ar
    42   26   27 1
    43   26   28 ar
    44   27   44 1
    45   27   45 1
    46   28   29 ar
    47   29   30 ar
    48   29   46 1
    49   30   31 ar
@<TRIPOS>SUBSTRUCTURE
     1 ACP         1 GROUP   0 A     ****
@<TRIPOS>MOLECULE
[[5-(6-aminopurin-9-yl)-3,4-dihydroxy-tetrahydrofuran-2-yl]methoxy-oxido-phosphoryl]oxy-(phosphonomethyl)phosphinate
   47    49     1     0     0
SMALL
USER_CHARGES

@<TRIPOS>ATOM
      1 PG          0.8550   23.2630   12.2680 P.3       1 ACP         1.6478
      2 O1G         0.2610   24.0670   11.1550 O.2       1 ACP        -0.9103
      3 O2G         1.5460   24.2690   13.3220 O.3       1 ACP        -0.7989
      4 O3G        -0.1310   22.3590   12.9100 O.3       1 ACP        -0.7989
      5 PB          3.9600   22.9890   11.4430 P.3       1 ACP         1.4947
      6 O1B         4.3120   23.6160   12.7350 O.2       1 ACP        -0.8554
      7 O2B         3.9240   23.9590   10.3010 O.3       1 ACP        -0.8554
      8 C3B         2.2840   22.2700   11.6710 C.3       1 ACP        -0.6550
      9 PA          5.7430   20.7430   12.1060 P.3       1 ACP         1.5921
     10 O1A         4.8310   20.2740   13.1830 O.2       1 ACP        -0.8561
     11 O2A         7.0060   21.2900   12.6600 O.3       1 ACP        -0.8561
     12 O3A         5.0120   21.8360   11.1810 O.3       1 ACP        -0.8166
     13 O5'         6.0310   19.5600   11.0600 O.3       1 ACP        -0.5737
     14 C5'         4.9790   19.0950   10.1930 C.3       1 ACP         0.2197
     15 C4'         5.2560   17.6540    9.8080 C.3       1 ACP         0.0944
     16 O4'         6.3740   17.6320    8.8930 O.3       1 ACP        -0.4017
     17 C3'         5.6520   16.8010   11.0140 C.3       1 ACP         0.0859
     18 O3'         5.2040   15.4480   10.8610 O.3       1 ACP        -0.5941
     19 C2'         7.1700   16.9250   11.0340 C.3       1 ACP         0.0924
     20 O2'         7.8570   15.9360   11.8240 O.3       1 ACP        -0.5928
     21 C1'         7.4740   16.9460    9.5320 C.3       1 ACP         0.3967
     22 N9          8.7090   17.7200    9.2130 N.pl3     1 ACP        -0.6763
     23 C8          8.8950   19.0190    9.4210 C.ar      1 ACP         0.5586
     24 N7         10.1830   19.2940    9.1830 N.ar      1 ACP        -0.5795
     25 C5         10.7990   18.1770    8.8190 C.ar      1 ACP        -0.2116
     26 C6         12.1150   17.8560    8.4630 C.ar      1 ACP         0.7185
     27 N6         13.1040   18.7320    8.5870 N.pl3     1 ACP        -0.9442
     28 N1         12.3770   16.5790    8.1080 N.ar      1 ACP        -0.8040
     29 C2         11.4290   15.6450    8.1140 C.ar      1 ACP         0.6560
     30 N3         10.2040   15.9280    8.4830 N.ar      1 ACP        -0.7058
     31 C4          9.8490   17.1740    8.8270 C.ar      1 ACP         0.5729
     32 HOG2        0.9335   25.0073   13.8604 H         1 ACP         0.4440
     33 HOG3       -1.0601   22.7695   13.3322 H         1 ACP         0.4440
     34 H3B1        2.4713   21.4406   12.3689 H         1 ACP         0.1084
     35 H3B2        2.0583   21.8657   10.6732 H         1 ACP         0.1084
     36 H5'1        4.0151   19.1594   10.7190 H         1 ACP         0.0281
     37 H5'2        4.9458   19.7204    9.2887 H         1 ACP         0.0281
     38 H4'         4.3602   17.2441    9.3185 H         1 ACP         0.1082
     39 H3'         5.1723   17.0686   11.9670 H         1 ACP         0.0650
     40 HO3'        4.1272   15.2252   10.8317 H         1 ACP         0.4300
     41 H2'         7.5793   17.7731   11.6025 H         1 ACP         0.0785
     42 HO2'        7.6770   15.8755   12.9075 H         1 ACP         0.4275
     43 H1'         7.5941   15.9232    9.1453 H         1 ACP         0.1009
     44 H8          8.1200   19.7380    9.7340 H         1 ACP         0.1067
     45 HN61       12.8858   19.7706    8.8763 H         1 ACP         0.4213
     46 HN62       14.1421   18.4196    8.4005 H         1 ACP         0.4213
     47 H2         11.6640   14.6120    7.8060 H         1 ACP         0.0365
@<TRIPOS>BOND
     1    1    2 2
     2    1    3 1
     3    1    4 1
     4    1    8 1
     5    3   32 1
     6    4   33 1
     7    5    6 2
     8    5    7 1
     9    5    8 1
    10    5   12 1
    11    8   34 1
    12    8   35 1
    13    9   10 2
    14    9   11 1
    15    9   12 1
    16    9   13 1
    17   13   14 1
    18   14   15 1
    19   14   36 1
    20   14   37 1
    21   15   16 1
    22   15   17 1
    23   15   38 1
    24   16   21 1
    25   17   18 1
    26   17   19 1
    27   17   39 1
    28   18   40 1
    29   19   20 1
    30   19   21 1
    31   19   41 1
    32   20   42 1
    33   21   22 1
    34   21   43 1
    35   22   23 ar
    36   22   31 ar
    37   23   24 ar
    38   23   44 1
    39   24   25 ar
    40   25   26 ar
    41   25   31 ar
    42   26   27 1
    43   26   28 ar
    44   27   45 1
    45   27   46 1
    46   28   29 ar
    47   29   30 ar
    48   29   47 1
    49   30   31 ar
@<TRIPOS>SUBSTRUCTURE
     1 ACP         1 GROUP   0 A     ****
@<TRIPOS>MOLECULE
[[5-(6-aminopurin-9-yl)-3,4-dihydroxy-tetrahydrofuran-2-yl]methoxy-hydroxy-phosphoryl]oxy-(phosphonomethyl)phosphinate
   48    50     1     0     0
SMALL
USER_CHARGES

@<TRIPOS>ATOM
      1 PG          0.8550   23.2630   12.2680 P.3       1 ACP         1.6292
      2 O1G         0.2610   24.0670   11.1550 O.2       1 ACP        -0.8674
      3 O2G         1.5460   24.2690   13.3220 O.3       1 ACP        -0.7977
      4 O3G        -0.1310   22.3590   12.9100 O.3       1 ACP        -0.7977
      5 PB          3.9600   22.9890   11.4430 P.3       1 ACP         1.4910
      6 O1B         4.3120   23.6160   12.7350 O.2       1 ACP        -0.8292
      7 O2B         3.9240   23.9590   10.3010 O.3       1 ACP        -0.8292
      8 C3B         2.2840   22.2700   11.6710 C.3       1 ACP        -0.6453
      9 PA          5.7430   20.7430   12.1060 P.3       1 ACP         1.7996
     10 O1A         4.8310   20.2740   13.1830 O.2       1 ACP        -0.8588
     11 O2A         7.0060   21.2900   12.6600 O.3       1 ACP        -0.8037
     12 O3A         5.0120   21.8360   11.1810 O.3       1 ACP        -0.7988
     13 O5'         6.0310   19.5600   11.0600 O.3       1 ACP        -0.5960
     14 C5'         4.9790   19.0950   10.1930 C.3       1 ACP         0.1917
     15 C4'         5.2560   17.6540    9.8080 C.3       1 ACP         0.0908
     16 O4'         6.3740   17.6320    8.8930 O.3       1 ACP        -0.4111
     17 C3'         5.6520   16.8010   11.0140 C.3       1 ACP         0.0927
     18 O3'         5.2040   15.4480   10.8610 O.3       1 ACP        -0.6127
     19 C2'         7.1700   16.9250   11.0340 C.3       1 ACP         0.1095
     20 O2'         7.8570   15.9360   11.8240 O.3       1 ACP        -0.5953
     21 C1'         7.4740   16.9460    9.5320 C.3       1 ACP         0.4273
     22 N9          8.7090   17.7200    9.2130 N.pl3     1 ACP        -0.6934
     23 C8          8.8950   19.0190    9.4210 C.ar      1 ACP         0.5422
     24 N7         10.1830   19.2940    9.1830 N.ar      1 ACP        -0.5596
     25 C5         10.7990   18.1770    8.8190 C.ar      1 ACP        -0.2259
     26 C6         12.1150   17.8560    8.4630 C.ar      1 ACP         0.7526
     27 N6         13.1040   18.7320    8.5870 N.pl3     1 ACP        -0.9660
     28 N1         12.3770   16.5790    8.1080 N.ar      1 ACP        -0.8027
     29 C2         11.4290   15.6450    8.1140 C.ar      1 ACP         0.6758
     30 N3         10.2040   15.9280    8.4830 N.ar      1 ACP        -0.7221
     31 C4          9.8490   17.1740    8.8270 C.ar      1 ACP         0.5858
     32 HOG2        0.9335   25.0073   13.8604 H         1 ACP         0.4705
     33 HOG3       -1.0601   22.7695   13.3322 H         1 ACP         0.4705
     34 H3B1        2.4713   21.4406   12.3689 H         1 ACP         0.1189
     35 H3B2        2.0583   21.8657   10.6732 H         1 ACP         0.1189
     36 HOA2        6.9756   22.1095   13.3931 H         1 ACP         0.4679
     37 H5'1        4.0151   19.1594   10.7190 H         1 ACP         0.0587
     38 H5'2        4.9458   19.7204    9.2887 H         1 ACP         0.0587
     39 H4'         4.3602   17.2441    9.3185 H         1 ACP         0.0938
     40 H3'         5.1723   17.0686   11.9670 H         1 ACP         0.0597
     41 HO3'        4.1272   15.2252   10.8317 H         1 ACP         0.4554
     42 H2'         7.5793   17.7731   11.6025 H         1 ACP         0.0710
     43 HO2'        7.6770   15.8755   12.9075 H         1 ACP         0.4360
     44 H1'         7.5941   15.9232    9.1453 H         1 ACP         0.1247
     45 H8          8.1200   19.7380    9.7340 H         1 ACP         0.0875
     46 HN61       12.8858   19.7706    8.8763 H         1 ACP         0.4433
     47 HN62       14.1421   18.4196    8.4005 H         1 ACP         0.4433
     48 H2         11.6640   14.6120    7.8060 H         1 ACP         0.0459
@<TRIPOS>BOND
     1    1    2 2
     2    1    3 1
     3    1    4 1
     4    1    8 1
     5    3   32 1
     6    4   33 1
     7    5    6 2
     8    5    7 1
     9    5    8 1
    10    5   12 1
    11    8   34 1
    12    8   35 1
    13    9   10 2
    14    9   11 1
    15    9   12 1
    16    9   13 1
    17   11   36 1
    18   13   14 1
    19   14   15 1
    20   14   37 1
    21   14   38 1
    22   15   16 1
    23   15   17 1
    24   15   39 1
    25   16   21 1
    26   17   18 1
    27   17   19 1
    28   17   40 1
    29   18   41 1
    30   19   20 1
    31   19   21 1
    32   19   42 1
    33   20   43 1
    34   21   22 1
    35   21   44 1
    36   22   23 ar
    37   22   31 ar
    38   23   24 ar
    39   23   45 1
    40   24   25 ar
    41   25   26 ar
    42   25   31 ar
    43   26   27 1
    44   26   28 ar
    45   27   46 1
    46   27   47 1
    47   28   29 ar
    48   29   30 ar
    49   29   48 1
    50   30   31 ar
@<TRIPOS>SUBSTRUCTURE
     1 ACP         1 GROUP   0 A     ****
@<TRIPOS>MOLECULE
[[[5-(6-aminopurin-9-yl)-3,4-dihydroxy-tetrahydrofuran-2-yl]methoxy-oxido-phosphoryl]oxy-hydroxy-phosphoryl]methyl-hydroxy-phosphinate
   47    49     1     0     0
SMALL
USER_CHARGES

@<TRIPOS>ATOM
      1 PG          0.8550   23.2630   12.2680 P.3       1 ACP         1.3516
      2 O1G         0.2610   24.0670   11.1550 O.2       1 ACP        -0.8379
      3 O2G         1.5460   24.2690   13.3220 O.3       1 ACP        -0.8379
      4 O3G        -0.1310   22.3590   12.9100 O.3       1 ACP        -0.7980
      5 PB          3.9600   22.9890   11.4430 P.3       1 ACP         1.7688
      6 O1B         4.3120   23.6160   12.7350 O.2       1 ACP        -0.9167
      7 O2B         3.9240   23.9590   10.3010 O.3       1 ACP        -0.8201
      8 C3B         2.2840   22.2700   11.6710 C.3       1 ACP        -0.6097
      9 PA          5.7430   20.7430   12.1060 P.3       1 ACP         1.5979
     10 O1A         4.8310   20.2740   13.1830 O.2       1 ACP        -0.8617
     11 O2A         7.0060   21.2900   12.6600 O.3       1 ACP        -0.8617
     12 O3A         5.0120   21.8360   11.1810 O.3       1 ACP        -0.8283
     13 O5'         6.0310   19.5600   11.0600 O.3       1 ACP        -0.5783
     14 C5'         4.9790   19.0950   10.1930 C.3       1 ACP         0.1980
     15 C4'         5.2560   17.6540    9.8080 C.3       1 ACP         0.0815
     16 O4'         6.3740   17.6320    8.8930 O.3       1 ACP        -0.4127
     17 C3'         5.6520   16.8010   11.0140 C.3       1 ACP         0.0890
     18 O3'         5.2040   15.4480   10.8610 O.3       1 ACP        -0.6221
     19 C2'         7.1700   16.9250   11.0340 C.3       1 ACP         0.1067
     20 O2'         7.8570   15.9360   11.8240 O.3       1 ACP        -0.6053
     21 C1'         7.4740   16.9460    9.5320 C.3       1 ACP         0.4223
     22 N9          8.7090   17.7200    9.2130 N.pl3     1 ACP        -0.6834
     23 C8          8.8950   19.0190    9.4210 C.ar      1 ACP         0.5614
     24 N7         10.1830   19.2940    9.1830 N.ar      1 ACP        -0.5751
     25 C5         10.7990   18.1770    8.8190 C.ar      1 ACP        -0.2117
     26 C6         12.1150   17.8560    8.4630 C.ar      1 ACP         0.7177
     27 N6         13.1040   18.7320    8.5870 N.pl3     1 ACP        -0.9401
     28 N1         12.3770   16.5790    8.1080 N.ar      1 ACP        -0.8008
     29 C2         11.4290   15.6450    8.1140 C.ar      1 ACP         0.6565
     30 N3         10.2040   15.9280    8.4830 N.ar      1 ACP        -0.7061
     31 C4          9.8490   17.1740    8.8270 C.ar      1 ACP         0.5715
     32 HOG3       -1.0601   22.7695   13.3322 H         1 ACP         0.4226
     33 HOB2        3.2406   24.8203   10.3323 H         1 ACP         0.4482
     34 H3B1        2.4713   21.4406   12.3689 H         1 ACP         0.1012
     35 H3B2        2.0583   21.8657   10.6732 H         1 ACP         0.1012
     36 H5'1        4.0151   19.1594   10.7190 H         1 ACP         0.0481
     37 H5'2        4.9458   19.7204    9.2887 H         1 ACP         0.0481
     38 H4'         4.3602   17.2441    9.3185 H         1 ACP         0.0904
     39 H3'         5.1723   17.0686   11.9670 H         1 ACP         0.0809
     40 HO3'        4.1272   15.2252   10.8317 H         1 ACP         0.4528
     41 H2'         7.5793   17.7731   11.6025 H         1 ACP         0.0594
     42 HO2'        7.6770   15.8755   12.9075 H         1 ACP         0.4344
     43 H1'         7.5941   15.9232    9.1453 H         1 ACP         0.1127
     44 H8          8.1200   19.7380    9.7340 H         1 ACP         0.1050
     45 HN61       12.8858   19.7706    8.8763 H         1 ACP         0.4211
     46 HN62       14.1421   18.4196    8.4005 H         1 ACP         0.4211
     47 H2         11.6640   14.6120    7.8060 H         1 ACP         0.0375
@<TRIPOS>BOND
     1    1    2 2
     2    1    3 1
     3    1    4 1
     4    1    8 1
     5    4   32 1
     6    5    6 2
     7    5    7 1
     8    5    8 1
     9    5   12 1
    10    7   33 1
    11    8   34 1
    12    8   35 1
    13    9   10 2
    14    9   11 1
    15    9   12 1
    16    9   13 1
    17   13   14 1
    18   14   15 1
    19   14   36 1
    20   14   37 1
    21   15   16 1
    22   15   17 1
    23   15   38 1
    24   16   21 1
    25   17   18 1
    26   17   19 1
    27   17   39 1
    28   18   40 1
    29   19   20 1
    30   19   21 1
    31   19   41 1
    32   20   42 1
    33   21   22 1
    34   21   43 1
    35   22   23 ar
    36   22   31 ar
    37   23   24 ar
    38   23   44 1
    39   24   25 ar
    40   25   26 ar
    41   25   31 ar
    42   26   27 1
    43   26   28 ar
    44   27   45 1
    45   27   46 1
    46   28   29 ar
    47   29   30 ar
    48   29   47 1
    49   30   31 ar
@<TRIPOS>SUBSTRUCTURE
     1 ACP         1 GROUP   0 A     ****
@<TRIPOS>MOLECULE
[[5-(6-amino-1,8-dihydropurine-6,8-diylium-7-id-9-yl)-3,4-dihydroxy-tetrahydrofuran-2-yl]methoxy-oxido-phosphoryl]oxy-(phosphonomethyl)phosphinate
   48    50     1     0     0
SMALL
USER_CHARGES

@<TRIPOS>ATOM
      1 PG          0.8550   23.2630   12.2680 P.3       1 ACP         1.6558
      2 O1G         0.2610   24.0670   11.1550 O.2       1 ACP        -0.9020
      3 O2G         1.5460   24.2690   13.3220 O.3       1 ACP        -0.8036
      4 O3G        -0.1310   22.3590   12.9100 O.3       1 ACP        -0.8036
      5 PB          3.9600   22.9890   11.4430 P.3       1 ACP         1.4945
      6 O1B         4.3120   23.6160   12.7350 O.2       1 ACP        -0.8481
      7 O2B         3.9240   23.9590   10.3010 O.3       1 ACP        -0.8481
      8 C3B         2.2840   22.2700   11.6710 C.3       1 ACP        -0.6636
      9 PA          5.7430   20.7430   12.1060 P.3       1 ACP         1.6023
     10 O1A         4.8310   20.2740   13.1830 O.2       1 ACP        -0.8673
     11 O2A         7.0060   21.2900   12.6600 O.3       1 ACP        -0.8673
     12 O3A         5.0120   21.8360   11.1810 O.3       1 ACP        -0.8150
     13 O5'         6.0310   19.5600   11.0600 O.3       1 ACP        -0.5522
     14 C5'         4.9790   19.0950   10.1930 C.3       1 ACP         0.2181
     15 C4'         5.2560   17.6540    9.8080 C.3       1 ACP         0.0915
     16 O4'         6.3740   17.6320    8.8930 O.3       1 ACP        -0.3675
     17 C3'         5.6520   16.8010   11.0140 C.3       1 ACP         0.0748
     18 O3'         5.2040   15.4480   10.8610 O.3       1 ACP        -0.5646
     19 C2'         7.1700   16.9250   11.0340 C.3       1 ACP         0.0804
     20 O2'         7.8570   15.9360   11.8240 O.3       1 ACP        -0.5882
     21 C1'         7.4740   16.9460    9.5320 C.3       1 ACP         0.3809
     22 N9          8.7090   17.7200    9.2130 N.pl3     1 ACP        -0.4412
     23 C8          8.8950   19.0190    9.4210 C.cat     1 ACP         0.1936
     24 N7         10.1830   19.2940    9.1830 N.ar      1 ACP        -0.2746
     25 C5         10.7990   18.1770    8.8190 C.ar      1 ACP        -0.1386
     26 C6         12.1150   17.8560    8.4630 C.cat     1 ACP         0.4778
     27 N6         13.1040   18.7320    8.5870 N.pl3     1 ACP        -0.8290
     28 N1         12.3770   16.5790    8.1080 N.pl3     1 ACP        -0.6985
     29 C2         11.4290   15.6450    8.1140 C.ar      1 ACP         0.6179
     30 N3         10.2040   15.9280    8.4830 N.ar      1 ACP        -0.5105
     31 C4          9.8490   17.1740    8.8270 C.ar      1 ACP         0.2753
     32 HOG2        0.9335   25.0073   13.8604 H         1 ACP         0.4487
     33 HOG3       -1.0601   22.7695   13.3322 H         1 ACP         0.4487
     34 H3B1        2.4713   21.4406   12.3689 H         1 ACP         0.1088
     35 H3B2        2.0583   21.8657   10.6732 H         1 ACP         0.1088
     36 H5'1        4.0151   19.1594   10.7190 H         1 ACP         0.0327
     37 H5'2        4.9458   19.7204    9.2887 H         1 ACP         0.0327
     38 H4'         4.3602   17.2441    9.3185 H         1 ACP         0.1275
     39 H3'         5.1723   17.0686   11.9670 H         1 ACP         0.0637
     40 HO3'        4.1272   15.2252   10.8317 H         1 ACP         0.4127
     41 H2'         7.5793   17.7731   11.6025 H         1 ACP         0.0692
     42 HO2'        7.6770   15.8755   12.9075 H         1 ACP         0.4431
     43 H1'         7.5941   15.9232    9.1453 H         1 ACP         0.1199
     44 H8          8.1200   19.7380    9.7340 H         1 ACP         0.2941
     45 HN61       12.8858   19.7706    8.8763 H         1 ACP         0.4754
     46 HN62       14.1421   18.4196    8.4005 H         1 ACP         0.4754
     47 H2         11.6640   14.6120    7.8060 H         1 ACP         0.0886
     48 H48        13.3941   16.2902    7.8044 H         1 ACP         0.4707
@<TRIPOS>BOND
     1    1    2 2
     2    1    3 1
     3    1    4 1
     4    1    8 1
     5    3   32 1
     6    4   33 1
     7    5    6 2
     8    5    7 1
     9    5    8 1
    10    5   12 1
    11    8   34 1
    12    8   35 1
    13    9   10 2
    14    9   11 1
    15    9   12 1
    16    9   13 1
    17   13   14 1
    18   14   15 1
    19   14   36 1
    20   14   37 1
    21   15   16 1
    22   15   17 1
    23   15   38 1
    24   16   21 1
    25   17   18 1
    26   17   19 1
    27   17   39 1
    28   18   40 1
    29   19   20 1
    30   19   21 1
    31   19   41 1
    32   20   42 1
    33   21   22 1
    34   21   43 1
    35   22   23 ar
    36   22   31 ar
    37   23   24 ar
    38   23   44 1
    39   24   25 ar
    40   25   26 ar
    41   25   31 ar
    42   26   27 1
    43   26   28 ar
    44   27   45 1
    45   27   46 1
    46   28   29 ar
    47   28   48 1
    48   29   30 ar
    49   29   47 1
    50   30   31 ar
@<TRIPOS>SUBSTRUCTURE
     1 ACP         1 GROUP   0 A     ****
@<TRIPOS>MOLECULE
[[5-(6-amino-7,8-dihydropurin-8-ylium-9-yl)-3,4-dihydroxy-tetrahydrofuran-2-yl]methoxy-oxido-phosphoryl]oxy-(phosphonomethyl)phosphinate
   48    50     1     0     0
SMALL
USER_CHARGES

@<TRIPOS>ATOM
      1 PG          0.8550   23.2630   12.2680 P.3       1 ACP         1.6495
      2 O1G         0.2610   24.0670   11.1550 O.2       1 ACP        -0.8967
      3 O2G         1.5460   24.2690   13.3220 O.3       1 ACP        -0.8024
      4 O3G        -0.1310   22.3590   12.9100 O.3       1 ACP        -0.8024
      5 PB          3.9600   22.9890   11.4430 P.3       1 ACP         1.4957
      6 O1B         4.3120   23.6160   12.7350 O.2       1 ACP        -0.8475
      7 O2B         3.9240   23.9590   10.3010 O.3       1 ACP        -0.8475
      8 C3B         2.2840   22.2700   11.6710 C.3       1 ACP        -0.6580
      9 PA          5.7430   20.7430   12.1060 P.3       1 ACP         1.6054
     10 O1A         4.8310   20.2740   13.1830 O.2       1 ACP        -0.8732
     11 O2A         7.0060   21.2900   12.6600 O.3       1 ACP        -0.8732
     12 O3A         5.0120   21.8360   11.1810 O.3       1 ACP        -0.8163
     13 O5'         6.0310   19.5600   11.0600 O.3       1 ACP        -0.5512
     14 C5'         4.9790   19.0950   10.1930 C.3       1 ACP         0.2249
     15 C4'         5.2560   17.6540    9.8080 C.3       1 ACP         0.0856
     16 O4'         6.3740   17.6320    8.8930 O.3       1 ACP        -0.3689
     17 C3'         5.6520   16.8010   11.0140 C.3       1 ACP         0.0755
     18 O3'         5.2040   15.4480   10.8610 O.3       1 ACP        -0.5678
     19 C2'         7.1700   16.9250   11.0340 C.3       1 ACP         0.0869
     20 O2'         7.8570   15.9360   11.8240 O.3       1 ACP        -0.5785
     21 C1'         7.4740   16.9460    9.5320 C.3       1 ACP         0.3825
     22 N9          8.7090   17.7200    9.2130 N.pl3     1 ACP        -0.5641
     23 C8          8.8950   19.0190    9.4210 C.cat     1 ACP         0.3111
     24 N7         10.1830   19.2940    9.1830 N.pl3     1 ACP        -0.5247
     25 C5         10.7990   18.1770    8.8190 C.ar      1 ACP        -0.2733
     26 C6         12.1150   17.8560    8.4630 C.ar      1 ACP         0.7581
     27 N6         13.1040   18.7320    8.5870 N.pl3     1 ACP        -0.9547
     28 N1         12.3770   16.5790    8.1080 N.ar      1 ACP        -0.7587
     29 C2         11.4290   15.6450    8.1140 C.ar      1 ACP         0.7030
     30 N3         10.2040   15.9280    8.4830 N.ar      1 ACP        -0.6804
     31 C4          9.8490   17.1740    8.8270 C.ar      1 ACP         0.6195
     32 HOG2        0.9335   25.0073   13.8604 H         1 ACP         0.4527
     33 HOG3       -1.0601   22.7695   13.3322 H         1 ACP         0.4527
     34 H3B1        2.4713   21.4406   12.3689 H         1 ACP         0.1075
     35 H3B2        2.0583   21.8657   10.6732 H         1 ACP         0.1075
     36 H5'1        4.0151   19.1594   10.7190 H         1 ACP         0.0245
     37 H5'2        4.9458   19.7204    9.2887 H         1 ACP         0.0245
     38 H4'         4.3602   17.2441    9.3185 H         1 ACP         0.1357
     39 H3'         5.1723   17.0686   11.9670 H         1 ACP         0.0619
     40 HO3'        4.1272   15.2252   10.8317 H         1 ACP         0.4173
     41 H2'         7.5793   17.7731   11.6025 H         1 ACP         0.0782
     42 HO2'        7.6770   15.8755   12.9075 H         1 ACP         0.4425
     43 H1'         7.5941   15.9232    9.1453 H         1 ACP         0.1350
     44 H8          8.1200   19.7380    9.7340 H         1 ACP         0.3205
     45 HN61       12.8858   19.7706    8.8763 H         1 ACP         0.4511
     46 HN62       14.1421   18.4196    8.4005 H         1 ACP         0.4511
     47 H2         11.6640   14.6120    7.8060 H         1 ACP         0.0772
     48 H48        10.5575   20.3212    9.3036 H         1 ACP         0.5017
@<TRIPOS>BOND
     1    1    2 2
     2    1    3 1
     3    1    4 1
     4    1    8 1
     5    3   32 1
     6    4   33 1
     7    5    6 2
     8    5    7 1
     9    5    8 1
    10    5   12 1
    11    8   34 1
    12    8   35 1
    13    9   10 2
    14    9   11 1
    15    9   12 1
    16    9   13 1
    17   13   14 1
    18   14   15 1
    19   14   36 1
    20   14   37 1
    21   15   16 1
    22   15   17 1
    23   15   38 1
    24   16   21 1
    25   17   18 1
    26   17   19 1
    27   17   39 1
    28   18   40 1
    29   19   20 1
    30   19   21 1
    31   19   41 1
    32   20   42 1
    33   21   22 1
    34   21   43 1
    35   22   23 ar
    36   22   31 ar
    37   23   24 ar
    38   23   44 1
    39   24   25 ar
    40   24   48 1
    41   25   26 ar
    42   25   31 ar
    43   26   27 1
    44   26   28 ar
    45   27   45 1
    46   27   46 1
    47   28   29 ar
    48   29   30 ar
    49   29   47 1
    50   30   31 ar
@<TRIPOS>SUBSTRUCTURE
     1 ACP         1 GROUP   0 A     ****
@<TRIPOS>MOLECULE
[[5-(6-amino-1,8-dihydropurine-6,8-diylium-7-id-9-yl)-3,4-dihydroxy-tetrahydrofuran-2-yl]methoxy-hydroxy-phosphoryl]oxy-(phosphonomethyl)phosphinate
   49    51     1     0     0
SMALL
USER_CHARGES

@<TRIPOS>ATOM
      1 PG          0.8550   23.2630   12.2680 P.3       1 ACP         1.6343
      2 O1G         0.2610   24.0670   11.1550 O.2       1 ACP        -0.8716
      3 O2G         1.5460   24.2690   13.3220 O.3       1 ACP        -0.7994
      4 O3G        -0.1310   22.3590   12.9100 O.3       1 ACP        -0.7994
      5 PB          3.9600   22.9890   11.4430 P.3       1 ACP         1.4869
      6 O1B         4.3120   23.6160   12.7350 O.2       1 ACP        -0.8236
      7 O2B         3.9240   23.9590   10.3010 O.3       1 ACP        -0.8236
      8 C3B         2.2840   22.2700   11.6710 C.3       1 ACP        -0.6500
      9 PA          5.7430   20.7430   12.1060 P.3       1 ACP         1.8022
     10 O1A         4.8310   20.2740   13.1830 O.2       1 ACP        -0.8484
     11 O2A         7.0060   21.2900   12.6600 O.3       1 ACP        -0.8171
     12 O3A         5.0120   21.8360   11.1810 O.3       1 ACP        -0.7964
     13 O5'         6.0310   19.5600   11.0600 O.3       1 ACP        -0.5892
     14 C5'         4.9790   19.0950   10.1930 C.3       1 ACP         0.1966
     15 C4'         5.2560   17.6540    9.8080 C.3       1 ACP         0.0767
     16 O4'         6.3740   17.6320    8.8930 O.3       1 ACP        -0.3998
     17 C3'         5.6520   16.8010   11.0140 C.3       1 ACP         0.0985
     18 O3'         5.2040   15.4480   10.8610 O.3       1 ACP        -0.6019
     19 C2'         7.1700   16.9250   11.0340 C.3       1 ACP         0.1212
     20 O2'         7.8570   15.9360   11.8240 O.3       1 ACP        -0.5931
     21 C1'         7.4740   16.9460    9.5320 C.3       1 ACP         0.3995
     22 N9          8.7090   17.7200    9.2130 N.pl3     1 ACP        -0.4533
     23 C8          8.8950   19.0190    9.4210 C.cat     1 ACP         0.1736
     24 N7         10.1830   19.2940    9.1830 N.ar      1 ACP        -0.2638
     25 C5         10.7990   18.1770    8.8190 C.ar      1 ACP        -0.1430
     26 C6         12.1150   17.8560    8.4630 C.cat     1 ACP         0.4890
     27 N6         13.1040   18.7320    8.5870 N.pl3     1 ACP        -0.8143
     28 N1         12.3770   16.5790    8.1080 N.pl3     1 ACP        -0.6962
     29 C2         11.4290   15.6450    8.1140 C.ar      1 ACP         0.6355
     30 N3         10.2040   15.9280    8.4830 N.ar      1 ACP        -0.5150
     31 C4          9.8490   17.1740    8.8270 C.ar      1 ACP         0.2963
     32 HOG2        0.9335   25.0073   13.8604 H         1 ACP         0.4745
     33 HOG3       -1.0601   22.7695   13.3322 H         1 ACP         0.4745
     34 H3B1        2.4713   21.4406   12.3689 H         1 ACP         0.1223
     35 H3B2        2.0583   21.8657   10.6732 H         1 ACP         0.1223
     36 HOA2        6.9756   22.1095   13.3931 H         1 ACP         0.4725
     37 H5'1        4.0151   19.1594   10.7190 H         1 ACP         0.0597
     38 H5'2        4.9458   19.7204    9.2887 H         1 ACP         0.0597
     39 H4'         4.3602   17.2441    9.3185 H         1 ACP         0.1105
     40 H3'         5.1723   17.0686   11.9670 H         1 ACP         0.0633
     41 HO3'        4.1272   15.2252   10.8317 H         1 ACP         0.4685
     42 H2'         7.5793   17.7731   11.6025 H         1 ACP         0.0728
     43 HO2'        7.6770   15.8755   12.9075 H         1 ACP         0.4533
     44 H1'         7.5941   15.9232    9.1453 H         1 ACP         0.1344
     45 H8          8.1200   19.7380    9.7340 H         1 ACP         0.2565
     46 HN61       12.8858   19.7706    8.8763 H         1 ACP         0.4817
     47 HN62       14.1421   18.4196    8.4005 H         1 ACP         0.4817
     48 H2         11.6640   14.6120    7.8060 H         1 ACP         0.0997
     49 H49        13.3941   16.2902    7.8044 H         1 ACP         0.4811
@<TRIPOS>BOND
     1    1    2 2
     2    1    3 1
     3    1    4 1
     4    1    8 1
     5    3   32 1
     6    4   33 1
     7    5    6 2
     8    5    7 1
     9    5    8 1
    10    5   12 1
    11    8   34 1
    12    8   35 1
    13    9   10 2
    14    9   11 1
    15    9   12 1
    16    9   13 1
    17   11   36 1
    18   13   14 1
    19   14   15 1
    20   14   37 1
    21   14   38 1
    22   15   16 1
    23   15   17 1
    24   15   39 1
    25   16   21 1
    26   17   18 1
    27   17   19 1
    28   17   40 1
    29   18   41 1
    30   19   20 1
    31   19   21 1
    32   19   42 1
    33   20   43 1
    34   21   22 1
    35   21   44 1
    36   22   23 ar
    37   22   31 ar
    38   23   24 ar
    39   23   45 1
    40   24   25 ar
    41   25   26 ar
    42   25   31 ar
    43   26   27 1
    44   26   28 ar
    45   27   46 1
    46   27   47 1
    47   28   29 ar
    48   28   49 1
    49   29   30 ar
    50   29   48 1
    51   30   31 ar
@<TRIPOS>SUBSTRUCTURE
     1 ACP         1 GROUP   0 A     ****
@<TRIPOS>MOLECULE
[[5-(6-amino-7,8-dihydropurin-8-ylium-9-yl)-3,4-dihydroxy-tetrahydrofuran-2-yl]methoxy-hydroxy-phosphoryl]oxy-(phosphonomethyl)phosphinate
   49    51     1     0     0
SMALL
USER_CHARGES

@<TRIPOS>ATOM
      1 PG          0.8550   23.2630   12.2680 P.3       1 ACP         1.6362
      2 O1G         0.2610   24.0670   11.1550 O.2       1 ACP        -0.8691
      3 O2G         1.5460   24.2690   13.3220 O.3       1 ACP        -0.8016
      4 O3G        -0.1310   22.3590   12.9100 O.3       1 ACP        -0.8016
      5 PB          3.9600   22.9890   11.4430 P.3       1 ACP         1.4874
      6 O1B         4.3120   23.6160   12.7350 O.2       1 ACP        -0.8240
      7 O2B         3.9240   23.9590   10.3010 O.3       1 ACP        -0.8240
      8 C3B         2.2840   22.2700   11.6710 C.3       1 ACP        -0.6510
      9 PA          5.7430   20.7430   12.1060 P.3       1 ACP         1.7966
     10 O1A         4.8310   20.2740   13.1830 O.2       1 ACP        -0.8436
     11 O2A         7.0060   21.2900   12.6600 O.3       1 ACP        -0.8190
     12 O3A         5.0120   21.8360   11.1810 O.3       1 ACP        -0.7947
     13 O5'         6.0310   19.5600   11.0600 O.3       1 ACP        -0.5846
     14 C5'         4.9790   19.0950   10.1930 C.3       1 ACP         0.2005
     15 C4'         5.2560   17.6540    9.8080 C.3       1 ACP         0.0711
     16 O4'         6.3740   17.6320    8.8930 O.3       1 ACP        -0.4064
     17 C3'         5.6520   16.8010   11.0140 C.3       1 ACP         0.0975
     18 O3'         5.2040   15.4480   10.8610 O.3       1 ACP        -0.5957
     19 C2'         7.1700   16.9250   11.0340 C.3       1 ACP         0.1195
     20 O2'         7.8570   15.9360   11.8240 O.3       1 ACP        -0.5845
     21 C1'         7.4740   16.9460    9.5320 C.3       1 ACP         0.4064
     22 N9          8.7090   17.7200    9.2130 N.pl3     1 ACP        -0.5630
     23 C8          8.8950   19.0190    9.4210 C.cat     1 ACP         0.2808
     24 N7         10.1830   19.2940    9.1830 N.pl3     1 ACP        -0.5040
     25 C5         10.7990   18.1770    8.8190 C.ar      1 ACP        -0.2807
     26 C6         12.1150   17.8560    8.4630 C.ar      1 ACP         0.7712
     27 N6         13.1040   18.7320    8.5870 N.pl3     1 ACP        -0.9461
     28 N1         12.3770   16.5790    8.1080 N.ar      1 ACP        -0.7457
     29 C2         11.4290   15.6450    8.1140 C.ar      1 ACP         0.7201
     30 N3         10.2040   15.9280    8.4830 N.ar      1 ACP        -0.6849
     31 C4          9.8490   17.1740    8.8270 C.ar      1 ACP         0.6369
     32 HOG2        0.9335   25.0073   13.8604 H         1 ACP         0.4781
     33 HOG3       -1.0601   22.7695   13.3322 H         1 ACP         0.4781
     34 H3B1        2.4713   21.4406   12.3689 H         1 ACP         0.1236
     35 H3B2        2.0583   21.8657   10.6732 H         1 ACP         0.1236
     36 HOA2        6.9756   22.1095   13.3931 H         1 ACP         0.4716
     37 H5'1        4.0151   19.1594   10.7190 H         1 ACP         0.0529
     38 H5'2        4.9458   19.7204    9.2887 H         1 ACP         0.0529
     39 H4'         4.3602   17.2441    9.3185 H         1 ACP         0.1213
     40 H3'         5.1723   17.0686   11.9670 H         1 ACP         0.0524
     41 HO3'        4.1272   15.2252   10.8317 H         1 ACP         0.4707
     42 H2'         7.5793   17.7731   11.6025 H         1 ACP         0.0774
     43 HO2'        7.6770   15.8755   12.9075 H         1 ACP         0.4561
     44 H1'         7.5941   15.9232    9.1453 H         1 ACP         0.1559
     45 H8          8.1200   19.7380    9.7340 H         1 ACP         0.2754
     46 HN61       12.8858   19.7706    8.8763 H         1 ACP         0.4584
     47 HN62       14.1421   18.4196    8.4005 H         1 ACP         0.4584
     48 H2         11.6640   14.6120    7.8060 H         1 ACP         0.0892
     49 H49        10.5575   20.3212    9.3036 H         1 ACP         0.5039
@<TRIPOS>BOND
     1    1    2 2
     2    1    3 1
     3    1    4 1
     4    1    8 1
     5    3   32 1
     6    4   33 1
     7    5    6 2
     8    5    7 1
     9    5    8 1
    10    5   12 1
    11    8   34 1
    12    8   35 1
    13    9   10 2
    14    9   11 1
    15    9   12 1
    16    9   13 1
    17   11   36 1
    18   13   14 1
    19   14   15 1
    20   14   37 1
    21   14   38 1
    22   15   16 1
    23   15   17 1
    24   15   39 1
    25   16   21 1
    26   17   18 1
    27   17   19 1
    28   17   40 1
    29   18   41 1
    30   19   20 1
    31   19   21 1
    32   19   42 1
    33   20   43 1
    34   21   22 1
    35   21   44 1
    36   22   23 ar
    37   22   31 ar
    38   23   24 ar
    39   23   45 1
    40   24   25 ar
    41   24   49 1
    42   25   26 ar
    43   25   31 ar
    44   26   27 1
    45   26   28 ar
    46   27   46 1
    47   27   47 1
    48   28   29 ar
    49   29   30 ar
    50   29   48 1
    51   30   31 ar
@<TRIPOS>SUBSTRUCTURE
     1 ACP         1 GROUP   0 A     ****
