@<TRIPOS>MOLECULE
[[5-(6-aminopurin-9-yl)-3,4-dihydroxy-tetrahydrofuran-2-yl]methoxy-hydroxy-phosphoryl]oxy-(phosphonomethyl)phosphinate
   48    50     1     0     0
SMALL
USER_CHARGES

@<TRIPOS>ATOM
      1 PG         -2.7770    1.8992   -2.8843 P.3       1 ACP         1.6292
      2 O1G        -1.7684    1.3916   -1.8981 O.2       1 ACP        -0.8674
      3 O2G        -2.2421    3.0300   -3.9066 O.3       1 ACP        -0.7977
      4 O3G        -3.4199    0.7805   -3.8564 O.3       1 ACP        -0.7977
      5 PB         -4.1077    4.1548   -1.0338 P.3       1 ACP         1.4910
      6 O1B        -5.5127    4.5073   -0.6032 O.co2     1 ACP        -0.8292
      7 O2B        -3.2022    5.1499   -1.7217 O.co2     1 ACP        -0.8292
      8 C3B        -4.2278    2.6719   -2.1328 C.3       1 ACP        -0.6453
      9 PA         -2.9682    4.0282    1.6825 P.3       1 ACP         1.7996
     10 O1A        -4.1668    4.4027    2.5051 O.2       1 ACP        -0.8588
     11 O2A        -1.9512    5.2515    1.3883 O.3       1 ACP        -0.8037
     12 O3A        -3.3154    3.4582    0.2093 O.3       1 ACP        -0.7988
     13 O5'        -2.0397    2.8622    2.3121 O.3       1 ACP        -0.5960
     14 C5'        -0.8811    2.4285    1.6206 C.3       1 ACP         0.1917
     15 C4'        -0.1994    1.3333    2.4288 C.3       1 ACP         0.0908
     16 O4'        -1.1285    0.2356    2.5840 O.3       1 ACP        -0.4111
     17 C3'         1.0324    0.7610    1.7344 C.3       1 ACP         0.0927
     18 O3'         1.9175    0.2377    2.7247 O.3       1 ACP        -0.6127
     19 C2'         0.4468   -0.3802    0.9263 C.3       1 ACP         0.1095
     20 O2'         1.3993   -1.3703    0.5961 O.3       1 ACP        -0.5953
     21 C1'        -0.6159   -0.9100    1.8769 C.3       1 ACP         0.4273
     22 N9         -1.7127   -1.6108    1.2130 N.pl3     1 ACP        -0.6934
     23 C8         -2.8641   -1.0399    0.7392 C.ar      1 ACP         0.5422
     24 N7         -3.6659   -1.9257    0.1858 N.2       1 ACP        -0.5596
     25 C5         -3.0053   -3.1223    0.3069 C.ar      1 ACP        -0.2259
     26 C6         -3.3321   -4.4178   -0.0813 C.ar      1 ACP         0.7526
     27 N6         -4.5476   -4.6866   -0.7335 N.pl3     1 ACP        -0.9660
     28 N1         -2.4608   -5.4225    0.1773 N.ar      1 ACP        -0.8027
     29 C2         -1.3053   -5.1020    0.8081 C.ar      1 ACP         0.6758
     30 N3         -0.8788   -3.8921    1.2315 N.ar      1 ACP        -0.7221
     31 C4         -1.7870   -2.9477    0.9438 C.ar      1 ACP         0.5858
     32 HOG2       -2.8598    3.3982   -4.5738 H         1 ACP         0.4705
     33 HOG3       -2.8282    0.2671   -4.4468 H         1 ACP         0.4705
     34 H3B1       -4.8996    2.9566   -2.9505 H         1 ACP         0.1189
     35 H3B2       -4.7456    1.9034   -1.5477 H         1 ACP         0.1189
     36 HOA2       -1.5318    5.7121    2.1460 H         1 ACP         0.4679
     37 H5'1       -1.1760    2.0499    0.6365 H         1 ACP         0.0587
     38 H5'2       -0.2073    3.2811    1.4873 H         1 ACP         0.0587
     39 H4'         0.0402    1.7079    3.4342 H         1 ACP         0.0938
     40 H3'         1.5907    1.4859    1.1353 H         1 ACP         0.0597
     41 HO3'        2.6839   -0.1150    2.2479 H         1 ACP         0.4554
     42 H2'        -0.0017    0.0018    0.0005 H         1 ACP         0.0710
     43 HO2'        2.0953   -0.9375    0.0709 H         1 ACP         0.4360
     44 H1'        -0.1998   -1.6319    2.6178 H         1 ACP         0.1247
     45 H8         -3.0609    0.0200    0.8250 H         1 ACP         0.0875
     46 HN61       -5.2046   -3.9433   -0.8775 H         1 ACP         0.4433
     47 HN62       -4.7849   -5.6332   -0.9625 H         1 ACP         0.4433
     48 H2         -0.6318   -5.9307    0.9993 H         1 ACP         0.0459
@<TRIPOS>BOND
     1    1    2 2
     2    1    3 1
     3    1    4 1
     4    1    8 1
     5    3   32 1
     6    4   33 1
     7    5    6 2
     8    5    7 1
     9    5    8 1
    10    5   12 1
    11    8   34 1
    12    8   35 1
    13    9   10 2
    14    9   11 1
    15    9   12 1
    16    9   13 1
    17   11   36 1
    18   13   14 1
    19   14   15 1
    20   14   37 1
    21   14   38 1
    22   15   16 1
    23   15   17 1
    24   15   39 1
    25   16   21 1
    26   17   18 1
    27   17   19 1
    28   17   40 1
    29   18   41 1
    30   19   20 1
    31   19   21 1
    32   19   42 1
    33   20   43 1
    34   21   22 1
    35   21   44 1
    36   22   23 ar
    37   22   31 ar
    38   23   24 ar
    39   23   45 1
    40   24   25 ar
    41   25   26 ar
    42   25   31 ar
    43   26   27 1
    44   26   28 ar
    45   27   46 1
    46   27   47 1
    47   28   29 ar
    48   29   30 ar
    49   29   48 1
    50   30   31 ar
@<TRIPOS>SUBSTRUCTURE
     1 ACP         1 GROUP 0 A     ****
@<TRIPOS>MOLECULE
[[5-(6-aminopurin-9-yl)-3,4-dihydroxy-tetrahydrofuran-2-yl]methoxy-hydroxy-phosphoryl]oxy-(phosphonomethyl)phosphinate
   48    50     1     0     0
SMALL
USER_CHARGES

@<TRIPOS>ATOM
      1 PG         -3.9445    1.7096   -2.1566 P.3       1 ACP         1.6292
      2 O1G        -2.8100    1.1423   -1.3574 O.2       1 ACP        -0.8674
      3 O2G        -3.5182    2.5669   -3.4579 O.3       1 ACP        -0.7977
      4 O3G        -4.9909    0.6262   -2.7405 O.3       1 ACP        -0.7977
      5 PB         -4.3634    4.4078   -0.4753 P.3       1 ACP         1.4910
      6 O1B        -5.5314    5.0885    0.2001 O.co2     1 ACP        -0.8292
      7 O2B        -3.5194    5.1025   -1.5186 O.co2     1 ACP        -0.8292
      8 C3B        -5.0044    2.8492   -1.2377 C.3       1 ACP        -0.6453
      9 PA         -2.5920    4.4092    1.8816 P.3       1 ACP         1.7996
     10 O1A        -3.4579    5.1208    2.8804 O.2       1 ACP        -0.8588
     11 O2A        -1.5023    5.3543    1.1490 O.3       1 ACP        -0.8037
     12 O3A        -3.3985    3.7339    0.6531 O.3       1 ACP        -0.7988
     13 O5'        -1.7334    3.1724    2.4742 O.3       1 ACP        -0.5960
     14 C5'        -0.8811    2.4285    1.6206 C.3       1 ACP         0.1917
     15 C4'        -0.1994    1.3333    2.4288 C.3       1 ACP         0.0908
     16 O4'        -1.1285    0.2356    2.5840 O.3       1 ACP        -0.4111
     17 C3'         1.0324    0.7610    1.7344 C.3       1 ACP         0.0927
     18 O3'         1.9175    0.2377    2.7247 O.3       1 ACP        -0.6127
     19 C2'         0.4468   -0.3802    0.9263 C.3       1 ACP         0.1095
     20 O2'         1.3993   -1.3703    0.5961 O.3       1 ACP        -0.5953
     21 C1'        -0.6159   -0.9100    1.8769 C.3       1 ACP         0.4273
     22 N9         -1.7127   -1.6108    1.2130 N.pl3     1 ACP        -0.6934
     23 C8         -1.6011   -2.7426    0.4497 C.ar      1 ACP         0.5422
     24 N7         -2.7657   -3.1449   -0.0147 N.2       1 ACP        -0.5596
     25 C5         -3.6708   -2.2337    0.4686 C.ar      1 ACP        -0.2259
     26 C6         -5.0501   -2.1167    0.3282 C.ar      1 ACP         0.7526
     27 N6         -5.7760   -3.0497   -0.4318 N.pl3     1 ACP        -0.9660
     28 N1         -5.6892   -1.0882    0.9359 N.ar      1 ACP        -0.8027
     29 C2         -4.9364   -0.2212    1.6553 C.ar      1 ACP         0.6758
     30 N3         -3.6016   -0.2290    1.8634 N.ar      1 ACP        -0.7221
     31 C4         -3.0352   -1.2703    1.2354 C.ar      1 ACP         0.5858
     32 HOG2       -4.2201    2.9617   -4.0179 H         1 ACP         0.4705
     33 HOG3       -4.6647   -0.0681   -3.3520 H         1 ACP         0.4705
     34 H3B1       -5.8105    3.1543   -1.9144 H         1 ACP         0.1189
     35 H3B2       -5.4695    2.2833   -0.4225 H         1 ACP         0.1189
     36 HOA2       -0.8312    5.8158    1.6955 H         1 ACP         0.4679
     37 H5'1       -1.4795    1.9921    0.8142 H         1 ACP         0.0587
     38 H5'2       -0.1362    3.1035    1.1868 H         1 ACP         0.0587
     39 H4'         0.0402    1.7079    3.4342 H         1 ACP         0.0938
     40 H3'         1.5907    1.4859    1.1353 H         1 ACP         0.0597
     41 HO3'        2.6839   -0.1150    2.2479 H         1 ACP         0.4554
     42 H2'        -0.0017    0.0018    0.0005 H         1 ACP         0.0710
     43 HO2'        2.0953   -0.9375    0.0709 H         1 ACP         0.4360
     44 H1'        -0.1998   -1.6319    2.6178 H         1 ACP         0.1247
     45 H8         -0.6507   -3.2259    0.2692 H         1 ACP         0.0875
     46 HN61       -5.2868   -3.7791   -0.9150 H         1 ACP         0.4433
     47 HN62       -6.7619   -2.9208   -0.5594 H         1 ACP         0.4433
     48 H2         -5.4806    0.5898    2.1277 H         1 ACP         0.0459
@<TRIPOS>BOND
     1    1    2 2
     2    1    3 1
     3    1    4 1
     4    1    8 1
     5    3   32 1
     6    4   33 1
     7    5    6 2
     8    5    7 1
     9    5    8 1
    10    5   12 1
    11    8   34 1
    12    8   35 1
    13    9   10 2
    14    9   11 1
    15    9   12 1
    16    9   13 1
    17   11   36 1
    18   13   14 1
    19   14   15 1
    20   14   37 1
    21   14   38 1
    22   15   16 1
    23   15   17 1
    24   15   39 1
    25   16   21 1
    26   17   18 1
    27   17   19 1
    28   17   40 1
    29   18   41 1
    30   19   20 1
    31   19   21 1
    32   19   42 1
    33   20   43 1
    34   21   22 1
    35   21   44 1
    36   22   23 ar
    37   22   31 ar
    38   23   24 ar
    39   23   45 1
    40   24   25 ar
    41   25   26 ar
    42   25   31 ar
    43   26   27 1
    44   26   28 ar
    45   27   46 1
    46   27   47 1
    47   28   29 ar
    48   29   30 ar
    49   29   48 1
    50   30   31 ar
@<TRIPOS>SUBSTRUCTURE
     1 ACP         1 GROUP 0 A     ****
@<TRIPOS>MOLECULE
[[5-(6-aminopurin-9-yl)-3,4-dihydroxy-tetrahydrofuran-2-yl]methoxy-hydroxy-phosphoryl]oxy-(phosphonomethyl)phosphinate
   48    50     1     0     0
SMALL
USER_CHARGES

@<TRIPOS>ATOM
      1 PG         -1.8741    4.2408   -2.8401 P.3       1 ACP         1.6292
      2 O1G        -0.7467    5.1687   -3.1794 O.2       1 ACP        -0.8674
      3 O2G        -2.5863    3.5219   -4.0995 O.3       1 ACP        -0.7977
      4 O3G        -1.4900    3.0102   -1.8665 O.3       1 ACP        -0.7977
      5 PB         -3.0530    5.8724   -0.3439 P.3       1 ACP         1.4910
      6 O1B        -4.4103    6.4045    0.0539 O.co2     1 ACP        -0.8292
      7 O2B        -1.8364    6.7629   -0.4448 O.co2     1 ACP        -0.8292
      8 C3B        -3.2530    5.0301   -1.9785 C.3       1 ACP        -0.6453
      9 PA         -2.5516    4.3890    2.1542 P.3       1 ACP         1.7996
     10 O1A        -3.7879    4.7308    2.9341 O.2       1 ACP        -0.8588
     11 O2A        -1.2616    5.2960    2.5158 O.3       1 ACP        -0.8037
     12 O3A        -2.6991    4.5573    0.5525 O.3       1 ACP        -0.7988
     13 O5'        -2.0397    2.8622    2.3121 O.3       1 ACP        -0.5960
     14 C5'        -0.8811    2.4285    1.6206 C.3       1 ACP         0.1917
     15 C4'        -0.1994    1.3333    2.4288 C.3       1 ACP         0.0908
     16 O4'        -1.1285    0.2356    2.5840 O.3       1 ACP        -0.4111
     17 C3'         1.0324    0.7610    1.7344 C.3       1 ACP         0.0927
     18 O3'         1.9175    0.2377    2.7247 O.3       1 ACP        -0.6127
     19 C2'         0.4468   -0.3802    0.9263 C.3       1 ACP         0.1095
     20 O2'         1.3993   -1.3703    0.5961 O.3       1 ACP        -0.5953
     21 C1'        -0.6159   -0.9100    1.8769 C.3       1 ACP         0.4273
     22 N9         -1.7127   -1.6108    1.2130 N.pl3     1 ACP        -0.6934
     23 C8         -1.7712   -2.9546    0.9544 C.ar      1 ACP         0.5422
     24 N7         -2.8883   -3.2948    0.3462 N.2       1 ACP        -0.5596
     25 C5         -3.5834   -2.1202    0.2043 C.ar      1 ACP        -0.2259
     26 C6         -4.8225   -1.8251   -0.3554 C.ar      1 ACP         0.7526
     27 N6         -5.6154   -2.8394   -0.9189 N.pl3     1 ACP        -0.9660
     28 N1         -5.2589   -0.5425   -0.3507 N.ar      1 ACP        -0.8027
     29 C2         -4.4510    0.3913    0.2069 C.ar      1 ACP         0.6758
     30 N3         -3.2368    0.2296    0.7767 N.ar      1 ACP        -0.7221
     31 C4         -2.8684   -1.0596    0.7376 C.ar      1 ACP         0.5858
     32 HOG2       -2.0484    2.9487   -4.6863 H         1 ACP         0.4705
     33 HOG3       -2.1884    2.3706   -1.6107 H         1 ACP         0.4705
     34 H3B1       -3.6662    5.7845   -2.6575 H         1 ACP         0.1189
     35 H3B2       -4.0303    4.2711   -1.8342 H         1 ACP         0.1189
     36 HOA2       -0.9203    5.2897    3.4355 H         1 ACP         0.4679
     37 H5'1       -1.1760    2.0499    0.6365 H         1 ACP         0.0587
     38 H5'2       -0.2073    3.2811    1.4873 H         1 ACP         0.0587
     39 H4'         0.0402    1.7079    3.4342 H         1 ACP         0.0938
     40 H3'         1.5907    1.4859    1.1353 H         1 ACP         0.0597
     41 HO3'        2.6839   -0.1150    2.2479 H         1 ACP         0.4554
     42 H2'        -0.0017    0.0018    0.0005 H         1 ACP         0.0710
     43 HO2'        2.0953   -0.9375    0.0709 H         1 ACP         0.4360
     44 H1'        -0.1998   -1.6319    2.6178 H         1 ACP         0.1247
     45 H8         -0.9745   -3.6312    1.2318 H         1 ACP         0.0875
     46 HN61       -5.2619   -3.7766   -0.9586 H         1 ACP         0.4433
     47 HN62       -6.4834   -2.5990   -1.3590 H         1 ACP         0.4433
     48 H2         -4.8317    1.4071    0.1930 H         1 ACP         0.0459
@<TRIPOS>BOND
     1    1    2 2
     2    1    3 1
     3    1    4 1
     4    1    8 1
     5    3   32 1
     6    4   33 1
     7    5    6 2
     8    5    7 1
     9    5    8 1
    10    5   12 1
    11    8   34 1
    12    8   35 1
    13    9   10 2
    14    9   11 1
    15    9   12 1
    16    9   13 1
    17   11   36 1
    18   13   14 1
    19   14   15 1
    20   14   37 1
    21   14   38 1
    22   15   16 1
    23   15   17 1
    24   15   39 1
    25   16   21 1
    26   17   18 1
    27   17   19 1
    28   17   40 1
    29   18   41 1
    30   19   20 1
    31   19   21 1
    32   19   42 1
    33   20   43 1
    34   21   22 1
    35   21   44 1
    36   22   23 ar
    37   22   31 ar
    38   23   24 ar
    39   23   45 1
    40   24   25 ar
    41   25   26 ar
    42   25   31 ar
    43   26   27 1
    44   26   28 ar
    45   27   46 1
    46   27   47 1
    47   28   29 ar
    48   29   30 ar
    49   29   48 1
    50   30   31 ar
@<TRIPOS>SUBSTRUCTURE
     1 ACP         1 GROUP 0 A     ****
@<TRIPOS>MOLECULE
[[5-(6-aminopurin-9-yl)-3,4-dihydroxy-tetrahydrofuran-2-yl]methoxy-hydroxy-phosphoryl]oxy-(phosphonomethyl)phosphinate
   48    50     1     0     0
SMALL
USER_CHARGES

@<TRIPOS>ATOM
      1 PG         -4.8390    4.3118    2.4763 P.3       1 ACP         1.6292
      2 O1G        -4.5739    3.1278    3.3567 O.2       1 ACP        -0.8674
      3 O2G        -4.5046    4.1023    0.9096 O.3       1 ACP        -0.7977
      4 O3G        -6.3639    4.8450    2.4721 O.3       1 ACP        -0.7977
      5 PB         -2.0405    5.8173    2.9061 P.3       1 ACP         1.4910
      6 O1B        -1.5748    4.7761    3.8974 O.co2     1 ACP        -0.8292
      7 O2B        -1.6156    7.2645    2.9983 O.co2     1 ACP        -0.8292
      8 C3B        -3.8900    5.7877    2.9095 C.3       1 ACP        -0.6453
      9 PA         -0.4421    4.8274    0.6350 P.3       1 ACP         1.7996
     10 O1A         0.5938    5.9089    0.5310 O.2       1 ACP        -0.8588
     11 O2A        -0.9616    4.2610   -0.7886 O.3       1 ACP        -0.8037
     12 O3A        -1.8029    5.2700    1.3888 O.3       1 ACP        -0.7988
     13 O5'         0.0170    3.5129    1.4593 O.3       1 ACP        -0.5960
     14 C5'        -0.8811    2.4285    1.6206 C.3       1 ACP         0.1917
     15 C4'        -0.1994    1.3333    2.4288 C.3       1 ACP         0.0908
     16 O4'        -1.1285    0.2356    2.5840 O.3       1 ACP        -0.4111
     17 C3'         1.0324    0.7610    1.7344 C.3       1 ACP         0.0927
     18 O3'         1.9175    0.2377    2.7247 O.3       1 ACP        -0.6127
     19 C2'         0.4468   -0.3802    0.9263 C.3       1 ACP         0.1095
     20 O2'         1.3993   -1.3703    0.5961 O.3       1 ACP        -0.5953
     21 C1'        -0.6159   -0.9100    1.8769 C.3       1 ACP         0.4273
     22 N9         -1.7127   -1.6108    1.2130 N.pl3     1 ACP        -0.6934
     23 C8         -1.7712   -2.9546    0.9544 C.ar      1 ACP         0.5422
     24 N7         -2.8883   -3.2948    0.3462 N.2       1 ACP        -0.5596
     25 C5         -3.5834   -2.1202    0.2043 C.ar      1 ACP        -0.2259
     26 C6         -4.8225   -1.8251   -0.3554 C.ar      1 ACP         0.7526
     27 N6         -5.6154   -2.8394   -0.9189 N.pl3     1 ACP        -0.9660
     28 N1         -5.2589   -0.5425   -0.3507 N.ar      1 ACP        -0.8027
     29 C2         -4.4510    0.3913    0.2069 C.ar      1 ACP         0.6758
     30 N3         -3.2368    0.2296    0.7767 N.ar      1 ACP        -0.7221
     31 C4         -2.8684   -1.0596    0.7376 C.ar      1 ACP         0.5858
     32 HOG2       -3.5866    3.8800    0.6451 H         1 ACP         0.4705
     33 HOG3       -7.0789    4.2382    2.1839 H         1 ACP         0.4705
     34 H3B1       -4.2052    6.5842    2.2260 H         1 ACP         0.1189
     35 H3B2       -4.1951    6.0928    3.9169 H         1 ACP         0.1189
     36 HOA2       -0.3137    3.8525   -1.4014 H         1 ACP         0.4679
     37 H5'1       -1.7775    2.7842    2.1389 H         1 ACP         0.0587
     38 H5'2       -1.1659    2.0534    0.6322 H         1 ACP         0.0587
     39 H4'         0.0402    1.7079    3.4342 H         1 ACP         0.0938
     40 H3'         1.5907    1.4859    1.1353 H         1 ACP         0.0597
     41 HO3'        2.6839   -0.1150    2.2479 H         1 ACP         0.4554
     42 H2'        -0.0017    0.0018    0.0005 H         1 ACP         0.0710
     43 HO2'        2.0953   -0.9375    0.0709 H         1 ACP         0.4360
     44 H1'        -0.1998   -1.6319    2.6178 H         1 ACP         0.1247
     45 H8         -0.9745   -3.6312    1.2318 H         1 ACP         0.0875
     46 HN61       -5.2619   -3.7766   -0.9586 H         1 ACP         0.4433
     47 HN62       -6.4834   -2.5990   -1.3590 H         1 ACP         0.4433
     48 H2         -4.8317    1.4071    0.1930 H         1 ACP         0.0459
@<TRIPOS>BOND
     1    1    2 2
     2    1    3 1
     3    1    4 1
     4    1    8 1
     5    3   32 1
     6    4   33 1
     7    5    6 2
     8    5    7 1
     9    5    8 1
    10    5   12 1
    11    8   34 1
    12    8   35 1
    13    9   10 2
    14    9   11 1
    15    9   12 1
    16    9   13 1
    17   11   36 1
    18   13   14 1
    19   14   15 1
    20   14   37 1
    21   14   38 1
    22   15   16 1
    23   15   17 1
    24   15   39 1
    25   16   21 1
    26   17   18 1
    27   17   19 1
    28   17   40 1
    29   18   41 1
    30   19   20 1
    31   19   21 1
    32   19   42 1
    33   20   43 1
    34   21   22 1
    35   21   44 1
    36   22   23 ar
    37   22   31 ar
    38   23   24 ar
    39   23   45 1
    40   24   25 ar
    41   25   26 ar
    42   25   31 ar
    43   26   27 1
    44   26   28 ar
    45   27   46 1
    46   27   47 1
    47   28   29 ar
    48   29   30 ar
    49   29   48 1
    50   30   31 ar
@<TRIPOS>SUBSTRUCTURE
     1 ACP         1 GROUP 0 A     ****
@<TRIPOS>MOLECULE
[[5-(6-aminopurin-9-yl)-3,4-dihydroxy-tetrahydrofuran-2-yl]methoxy-hydroxy-phosphoryl]oxy-(phosphonomethyl)phosphinate
   48    50     1     0     0
SMALL
USER_CHARGES

@<TRIPOS>ATOM
      1 PG         -4.8390    4.3118    2.4763 P.3       1 ACP         1.6292
      2 O1G        -4.5888    3.8032    1.0885 O.2       1 ACP        -0.8674
      3 O2G        -6.3628    4.7440    2.7945 O.3       1 ACP        -0.7977
      4 O3G        -4.4787    3.2818    3.6676 O.3       1 ACP        -0.7977
      5 PB         -2.0405    5.8173    2.9061 P.3       1 ACP         1.4910
      6 O1B        -1.5748    4.7761    3.8974 O.co2     1 ACP        -0.8292
      7 O2B        -1.6156    7.2645    2.9983 O.co2     1 ACP        -0.8292
      8 C3B        -3.8900    5.7877    2.9095 C.3       1 ACP        -0.6453
      9 PA         -0.4421    4.8274    0.6350 P.3       1 ACP         1.7996
     10 O1A         0.5938    5.9089    0.5310 O.2       1 ACP        -0.8588
     11 O2A        -0.9616    4.2610   -0.7886 O.3       1 ACP        -0.8037
     12 O3A        -1.8029    5.2700    1.3888 O.3       1 ACP        -0.7988
     13 O5'         0.0170    3.5129    1.4593 O.3       1 ACP        -0.5960
     14 C5'        -0.8811    2.4285    1.6206 C.3       1 ACP         0.1917
     15 C4'        -0.1994    1.3333    2.4288 C.3       1 ACP         0.0908
     16 O4'        -1.1285    0.2356    2.5840 O.3       1 ACP        -0.4111
     17 C3'         1.0324    0.7610    1.7344 C.3       1 ACP         0.0927
     18 O3'         1.9175    0.2377    2.7247 O.3       1 ACP        -0.6127
     19 C2'         0.4468   -0.3802    0.9263 C.3       1 ACP         0.1095
     20 O2'         1.3993   -1.3703    0.5961 O.3       1 ACP        -0.5953
     21 C1'        -0.6159   -0.9100    1.8769 C.3       1 ACP         0.4273
     22 N9         -1.7127   -1.6108    1.2130 N.pl3     1 ACP        -0.6934
     23 C8         -2.8641   -1.0399    0.7392 C.ar      1 ACP         0.5422
     24 N7         -3.6659   -1.9257    0.1858 N.2       1 ACP        -0.5596
     25 C5         -3.0053   -3.1223    0.3069 C.ar      1 ACP        -0.2259
     26 C6         -3.3321   -4.4178   -0.0813 C.ar      1 ACP         0.7526
     27 N6         -4.5476   -4.6866   -0.7335 N.pl3     1 ACP        -0.9660
     28 N1         -2.4608   -5.4225    0.1773 N.ar      1 ACP        -0.8027
     29 C2         -1.3053   -5.1020    0.8081 C.ar      1 ACP         0.6758
     30 N3         -0.8788   -3.8921    1.2315 N.ar      1 ACP        -0.7221
     31 C4         -1.7870   -2.9477    0.9438 C.ar      1 ACP         0.5858
     32 HOG2       -6.5838    5.0842    3.6876 H         1 ACP         0.4705
     33 HOG3       -4.9395    2.4166    3.7034 H         1 ACP         0.4705
     34 H3B1       -4.2052    6.5842    2.2260 H         1 ACP         0.1189
     35 H3B2       -4.1951    6.0928    3.9169 H         1 ACP         0.1189
     36 HOA2       -0.3137    3.8525   -1.4014 H         1 ACP         0.4679
     37 H5'1       -1.7775    2.7842    2.1389 H         1 ACP         0.0587
     38 H5'2       -1.1659    2.0534    0.6322 H         1 ACP         0.0587
     39 H4'         0.0402    1.7079    3.4342 H         1 ACP         0.0938
     40 H3'         1.5907    1.4859    1.1353 H         1 ACP         0.0597
     41 HO3'        2.6839   -0.1150    2.2479 H         1 ACP         0.4554
     42 H2'        -0.0017    0.0018    0.0005 H         1 ACP         0.0710
     43 HO2'        2.0953   -0.9375    0.0709 H         1 ACP         0.4360
     44 H1'        -0.1998   -1.6319    2.6178 H         1 ACP         0.1247
     45 H8         -3.0609    0.0200    0.8250 H         1 ACP         0.0875
     46 HN61       -5.2046   -3.9433   -0.8775 H         1 ACP         0.4433
     47 HN62       -4.7849   -5.6332   -0.9625 H         1 ACP         0.4433
     48 H2         -0.6318   -5.9307    0.9993 H         1 ACP         0.0459
@<TRIPOS>BOND
     1    1    2 2
     2    1    3 1
     3    1    4 1
     4    1    8 1
     5    3   32 1
     6    4   33 1
     7    5    6 2
     8    5    7 1
     9    5    8 1
    10    5   12 1
    11    8   34 1
    12    8   35 1
    13    9   10 2
    14    9   11 1
    15    9   12 1
    16    9   13 1
    17   11   36 1
    18   13   14 1
    19   14   15 1
    20   14   37 1
    21   14   38 1
    22   15   16 1
    23   15   17 1
    24   15   39 1
    25   16   21 1
    26   17   18 1
    27   17   19 1
    28   17   40 1
    29   18   41 1
    30   19   20 1
    31   19   21 1
    32   19   42 1
    33   20   43 1
    34   21   22 1
    35   21   44 1
    36   22   23 ar
    37   22   31 ar
    38   23   24 ar
    39   23   45 1
    40   24   25 ar
    41   25   26 ar
    42   25   31 ar
    43   26   27 1
    44   26   28 ar
    45   27   46 1
    46   27   47 1
    47   28   29 ar
    48   29   30 ar
    49   29   48 1
    50   30   31 ar
@<TRIPOS>SUBSTRUCTURE
     1 ACP         1 GROUP 0 A     ****
@<TRIPOS>MOLECULE
[[5-(6-aminopurin-9-yl)-3,4-dihydroxy-tetrahydrofuran-2-yl]methoxy-hydroxy-phosphoryl]oxy-(phosphonomethyl)phosphinate
   48    50     1     0     0
SMALL
USER_CHARGES

@<TRIPOS>ATOM
      1 PG         -1.2005    4.2509   -2.4440 P.3       1 ACP         1.6292
      2 O1G        -0.2787    4.8983   -1.4547 O.2       1 ACP        -0.8674
      3 O2G        -1.0827    4.7920   -3.9617 O.3       1 ACP        -0.7977
      4 O3G        -1.0400    2.6507   -2.5968 O.3       1 ACP        -0.7977
      5 PB         -3.7140    3.8319   -0.4974 P.3       1 ACP         1.4910
      6 O1B        -3.4983    2.3368   -0.4574 O.co2     1 ACP        -0.8292
      7 O2B        -5.0882    4.4509   -0.3882 O.co2     1 ACP        -0.8292
      8 C3B        -2.9564    4.4526   -2.0665 C.3       1 ACP        -0.6453
      9 PA         -2.5516    4.3890    2.1542 P.3       1 ACP         1.7996
     10 O1A        -3.7879    4.7308    2.9341 O.2       1 ACP        -0.8588
     11 O2A        -1.2616    5.2960    2.5158 O.3       1 ACP        -0.8037
     12 O3A        -2.6991    4.5573    0.5525 O.3       1 ACP        -0.7988
     13 O5'        -2.0397    2.8622    2.3121 O.3       1 ACP        -0.5960
     14 C5'        -0.8811    2.4285    1.6206 C.3       1 ACP         0.1917
     15 C4'        -0.1994    1.3333    2.4288 C.3       1 ACP         0.0908
     16 O4'        -1.1285    0.2356    2.5840 O.3       1 ACP        -0.4111
     17 C3'         1.0324    0.7610    1.7344 C.3       1 ACP         0.0927
     18 O3'         1.9175    0.2377    2.7247 O.3       1 ACP        -0.6127
     19 C2'         0.4468   -0.3802    0.9263 C.3       1 ACP         0.1095
     20 O2'         1.3993   -1.3703    0.5961 O.3       1 ACP        -0.5953
     21 C1'        -0.6159   -0.9100    1.8769 C.3       1 ACP         0.4273
     22 N9         -1.7127   -1.6108    1.2130 N.pl3     1 ACP        -0.6934
     23 C8         -2.8641   -1.0399    0.7392 C.ar      1 ACP         0.5422
     24 N7         -3.6659   -1.9257    0.1858 N.2       1 ACP        -0.5596
     25 C5         -3.0053   -3.1223    0.3069 C.ar      1 ACP        -0.2259
     26 C6         -3.3321   -4.4178   -0.0813 C.ar      1 ACP         0.7526
     27 N6         -4.5476   -4.6866   -0.7335 N.pl3     1 ACP        -0.9660
     28 N1         -2.4608   -5.4225    0.1773 N.ar      1 ACP        -0.8027
     29 C2         -1.3053   -5.1020    0.8081 C.ar      1 ACP         0.6758
     30 N3         -0.8788   -3.8921    1.2315 N.ar      1 ACP        -0.7221
     31 C4         -1.7870   -2.9477    0.9438 C.ar      1 ACP         0.5858
     32 HOG2       -1.6624    4.4036   -4.6512 H         1 ACP         0.4705
     33 HOG3       -0.1763    2.2848   -2.8840 H         1 ACP         0.4705
     34 H3B1       -3.1707    5.5267   -2.1002 H         1 ACP         0.1189
     35 H3B2       -3.5248    3.9884   -2.8806 H         1 ACP         0.1189
     36 HOA2       -0.9203    5.2897    3.4355 H         1 ACP         0.4679
     37 H5'1       -1.1760    2.0499    0.6365 H         1 ACP         0.0587
     38 H5'2       -0.2073    3.2811    1.4873 H         1 ACP         0.0587
     39 H4'         0.0402    1.7079    3.4342 H         1 ACP         0.0938
     40 H3'         1.5907    1.4859    1.1353 H         1 ACP         0.0597
     41 HO3'        2.6839   -0.1150    2.2479 H         1 ACP         0.4554
     42 H2'        -0.0017    0.0018    0.0005 H         1 ACP         0.0710
     43 HO2'        2.0953   -0.9375    0.0709 H         1 ACP         0.4360
     44 H1'        -0.1998   -1.6319    2.6178 H         1 ACP         0.1247
     45 H8         -3.0609    0.0200    0.8250 H         1 ACP         0.0875
     46 HN61       -5.2046   -3.9433   -0.8775 H         1 ACP         0.4433
     47 HN62       -4.7849   -5.6332   -0.9625 H         1 ACP         0.4433
     48 H2         -0.6318   -5.9307    0.9993 H         1 ACP         0.0459
@<TRIPOS>BOND
     1    1    2 2
     2    1    3 1
     3    1    4 1
     4    1    8 1
     5    3   32 1
     6    4   33 1
     7    5    6 2
     8    5    7 1
     9    5    8 1
    10    5   12 1
    11    8   34 1
    12    8   35 1
    13    9   10 2
    14    9   11 1
    15    9   12 1
    16    9   13 1
    17   11   36 1
    18   13   14 1
    19   14   15 1
    20   14   37 1
    21   14   38 1
    22   15   16 1
    23   15   17 1
    24   15   39 1
    25   16   21 1
    26   17   18 1
    27   17   19 1
    28   17   40 1
    29   18   41 1
    30   19   20 1
    31   19   21 1
    32   19   42 1
    33   20   43 1
    34   21   22 1
    35   21   44 1
    36   22   23 ar
    37   22   31 ar
    38   23   24 ar
    39   23   45 1
    40   24   25 ar
    41   25   26 ar
    42   25   31 ar
    43   26   27 1
    44   26   28 ar
    45   27   46 1
    46   27   47 1
    47   28   29 ar
    48   29   30 ar
    49   29   48 1
    50   30   31 ar
@<TRIPOS>SUBSTRUCTURE
     1 ACP         1 GROUP 0 A     ****
@<TRIPOS>MOLECULE
[[5-(6-aminopurin-9-yl)-3,4-dihydroxy-tetrahydrofuran-2-yl]methoxy-hydroxy-phosphoryl]oxy-(phosphonomethyl)phosphinate
   48    50     1     0     0
SMALL
USER_CHARGES

@<TRIPOS>ATOM
      1 PG         -5.7756    1.5367   -0.2635 P.3       1 ACP         1.6292
      2 O1G        -4.8864    0.9462    0.7891 O.2       1 ACP        -0.8674
      3 O2G        -6.3047    0.5030   -1.3868 O.3       1 ACP        -0.7977
      4 O3G        -7.1283    2.2316    0.2817 O.3       1 ACP        -0.7977
      5 PB         -4.3634    4.4078   -0.4753 P.3       1 ACP         1.4910
      6 O1B        -5.5314    5.0885    0.2001 O.co2     1 ACP        -0.8292
      7 O2B        -3.5194    5.1025   -1.5186 O.co2     1 ACP        -0.8292
      8 C3B        -5.0044    2.8492   -1.2377 C.3       1 ACP        -0.6453
      9 PA         -2.5920    4.4092    1.8816 P.3       1 ACP         1.7996
     10 O1A        -3.4579    5.1208    2.8804 O.2       1 ACP        -0.8588
     11 O2A        -1.5023    5.3543    1.1490 O.3       1 ACP        -0.8037
     12 O3A        -3.3985    3.7339    0.6531 O.3       1 ACP        -0.7988
     13 O5'        -1.7334    3.1724    2.4742 O.3       1 ACP        -0.5960
     14 C5'        -0.8811    2.4285    1.6206 C.3       1 ACP         0.1917
     15 C4'        -0.1994    1.3333    2.4288 C.3       1 ACP         0.0908
     16 O4'        -1.1285    0.2356    2.5840 O.3       1 ACP        -0.4111
     17 C3'         1.0324    0.7610    1.7344 C.3       1 ACP         0.0927
     18 O3'         1.9175    0.2377    2.7247 O.3       1 ACP        -0.6127
     19 C2'         0.4468   -0.3802    0.9263 C.3       1 ACP         0.1095
     20 O2'         1.3993   -1.3703    0.5961 O.3       1 ACP        -0.5953
     21 C1'        -0.6159   -0.9100    1.8769 C.3       1 ACP         0.4273
     22 N9         -1.7127   -1.6108    1.2130 N.pl3     1 ACP        -0.6934
     23 C8         -2.5476   -1.0844    0.2632 C.ar      1 ACP         0.5422
     24 N7         -3.4391   -1.9591   -0.1536 N.2       1 ACP        -0.5596
     25 C5         -3.1701   -3.1016    0.5574 C.ar      1 ACP        -0.2259
     26 C6         -3.7593   -4.3620    0.5656 C.ar      1 ACP         0.7526
     27 N6         -4.8512   -4.6493   -0.2712 N.pl3     1 ACP        -0.9660
     28 N1         -3.2659   -5.3144    1.3932 N.ar      1 ACP        -0.8027
     29 C2         -2.2122   -4.9785    2.1759 C.ar      1 ACP         0.6758
     30 N3         -1.5595   -3.7985    2.2572 N.ar      1 ACP        -0.7221
     31 C4         -2.0986   -2.9054    1.4140 C.ar      1 ACP         0.5858
     32 HOG2       -6.8408   -0.2694   -1.1073 H         1 ACP         0.4705
     33 HOG3       -7.7485    2.6349   -0.3625 H         1 ACP         0.4705
     34 H3B1       -4.1551    2.4006   -1.7654 H         1 ACP         0.1189
     35 H3B2       -5.7257    3.1611   -2.0016 H         1 ACP         0.1189
     36 HOA2       -0.8312    5.8158    1.6955 H         1 ACP         0.4679
     37 H5'1       -1.4795    1.9921    0.8142 H         1 ACP         0.0587
     38 H5'2       -0.1362    3.1035    1.1868 H         1 ACP         0.0587
     39 H4'         0.0402    1.7079    3.4342 H         1 ACP         0.0938
     40 H3'         1.5907    1.4859    1.1353 H         1 ACP         0.0597
     41 HO3'        2.6839   -0.1150    2.2479 H         1 ACP         0.4554
     42 H2'        -0.0017    0.0018    0.0005 H         1 ACP         0.0710
     43 HO2'        2.0953   -0.9375    0.0709 H         1 ACP         0.4360
     44 H1'        -0.1998   -1.6319    2.6178 H         1 ACP         0.1247
     45 H8         -2.4576   -0.0639   -0.0831 H         1 ACP         0.0875
     46 HN61       -5.2371   -3.9234   -0.8448 H         1 ACP         0.4433
     47 HN62       -5.2909   -5.5485   -0.2160 H         1 ACP         0.4433
     48 H2         -1.8433   -5.7650    2.8259 H         1 ACP         0.0459
@<TRIPOS>BOND
     1    1    2 2
     2    1    3 1
     3    1    4 1
     4    1    8 1
     5    3   32 1
     6    4   33 1
     7    5    6 2
     8    5    7 1
     9    5    8 1
    10    5   12 1
    11    8   34 1
    12    8   35 1
    13    9   10 2
    14    9   11 1
    15    9   12 1
    16    9   13 1
    17   11   36 1
    18   13   14 1
    19   14   15 1
    20   14   37 1
    21   14   38 1
    22   15   16 1
    23   15   17 1
    24   15   39 1
    25   16   21 1
    26   17   18 1
    27   17   19 1
    28   17   40 1
    29   18   41 1
    30   19   20 1
    31   19   21 1
    32   19   42 1
    33   20   43 1
    34   21   22 1
    35   21   44 1
    36   22   23 ar
    37   22   31 ar
    38   23   24 ar
    39   23   45 1
    40   24   25 ar
    41   25   26 ar
    42   25   31 ar
    43   26   27 1
    44   26   28 ar
    45   27   46 1
    46   27   47 1
    47   28   29 ar
    48   29   30 ar
    49   29   48 1
    50   30   31 ar
@<TRIPOS>SUBSTRUCTURE
     1 ACP         1 GROUP 0 A     ****
@<TRIPOS>MOLECULE
[[5-(6-aminopurin-9-yl)-3,4-dihydroxy-tetrahydrofuran-2-yl]methoxy-hydroxy-phosphoryl]oxy-(phosphonomethyl)phosphinate
   48    50     1     0     0
SMALL
USER_CHARGES

@<TRIPOS>ATOM
      1 PG         -1.8741    4.2408   -2.8401 P.3       1 ACP         1.6292
      2 O1G        -1.2207    3.1316   -2.0718 O.2       1 ACP        -0.8674
      3 O2G        -0.9140    5.4833   -3.2200 O.3       1 ACP        -0.7977
      4 O3G        -2.5232    3.8142   -4.2566 O.3       1 ACP        -0.7977
      5 PB         -3.0530    5.8724   -0.3439 P.3       1 ACP         1.4910
      6 O1B        -4.4103    6.4045    0.0539 O.co2     1 ACP        -0.8292
      7 O2B        -1.8364    6.7629   -0.4448 O.co2     1 ACP        -0.8292
      8 C3B        -3.2530    5.0301   -1.9785 C.3       1 ACP        -0.6453
      9 PA         -2.5516    4.3890    2.1542 P.3       1 ACP         1.7996
     10 O1A        -3.7879    4.7308    2.9341 O.2       1 ACP        -0.8588
     11 O2A        -1.2616    5.2960    2.5158 O.3       1 ACP        -0.8037
     12 O3A        -2.6991    4.5573    0.5525 O.3       1 ACP        -0.7988
     13 O5'        -2.0397    2.8622    2.3121 O.3       1 ACP        -0.5960
     14 C5'        -0.8811    2.4285    1.6206 C.3       1 ACP         0.1917
     15 C4'        -0.1994    1.3333    2.4288 C.3       1 ACP         0.0908
     16 O4'        -1.1285    0.2356    2.5840 O.3       1 ACP        -0.4111
     17 C3'         1.0324    0.7610    1.7344 C.3       1 ACP         0.0927
     18 O3'         1.9175    0.2377    2.7247 O.3       1 ACP        -0.6127
     19 C2'         0.4468   -0.3802    0.9263 C.3       1 ACP         0.1095
     20 O2'         1.3993   -1.3703    0.5961 O.3       1 ACP        -0.5953
     21 C1'        -0.6159   -0.9100    1.8769 C.3       1 ACP         0.4273
     22 N9         -1.7127   -1.6108    1.2130 N.pl3     1 ACP        -0.6934
     23 C8         -1.7712   -2.9546    0.9544 C.ar      1 ACP         0.5422
     24 N7         -2.8883   -3.2948    0.3462 N.2       1 ACP        -0.5596
     25 C5         -3.5834   -2.1202    0.2043 C.ar      1 ACP        -0.2259
     26 C6         -4.8225   -1.8251   -0.3554 C.ar      1 ACP         0.7526
     27 N6         -5.6154   -2.8394   -0.9189 N.pl3     1 ACP        -0.9660
     28 N1         -5.2589   -0.5425   -0.3507 N.ar      1 ACP        -0.8027
     29 C2         -4.4510    0.3913    0.2069 C.ar      1 ACP         0.6758
     30 N3         -3.2368    0.2296    0.7767 N.ar      1 ACP        -0.7221
     31 C4         -2.8684   -1.0596    0.7376 C.ar      1 ACP         0.5858
     32 HOG2       -1.2890    6.2375   -3.7227 H         1 ACP         0.4705
     33 HOG3       -1.9439    3.4285   -4.9480 H         1 ACP         0.4705
     34 H3B1       -3.6662    5.7845   -2.6575 H         1 ACP         0.1189
     35 H3B2       -4.0303    4.2711   -1.8342 H         1 ACP         0.1189
     36 HOA2       -1.3128    6.2668    2.3850 H         1 ACP         0.4679
     37 H5'1       -1.1760    2.0499    0.6365 H         1 ACP         0.0587
     38 H5'2       -0.2073    3.2811    1.4873 H         1 ACP         0.0587
     39 H4'         0.0402    1.7079    3.4342 H         1 ACP         0.0938
     40 H3'         1.5907    1.4859    1.1353 H         1 ACP         0.0597
     41 HO3'        2.6839   -0.1150    2.2479 H         1 ACP         0.4554
     42 H2'        -0.0017    0.0018    0.0005 H         1 ACP         0.0710
     43 HO2'        0.9369   -2.0558    0.0825 H         1 ACP         0.4360
     44 H1'        -0.1998   -1.6319    2.6178 H         1 ACP         0.1247
     45 H8         -0.9745   -3.6312    1.2318 H         1 ACP         0.0875
     46 HN61       -5.2619   -3.7766   -0.9586 H         1 ACP         0.4433
     47 HN62       -6.4834   -2.5990   -1.3590 H         1 ACP         0.4433
     48 H2         -4.8317    1.4071    0.1930 H         1 ACP         0.0459
@<TRIPOS>BOND
     1    1    2 2
     2    1    3 1
     3    1    4 1
     4    1    8 1
     5    3   32 1
     6    4   33 1
     7    5    6 2
     8    5    7 1
     9    5    8 1
    10    5   12 1
    11    8   34 1
    12    8   35 1
    13    9   10 2
    14    9   11 1
    15    9   12 1
    16    9   13 1
    17   11   36 1
    18   13   14 1
    19   14   15 1
    20   14   37 1
    21   14   38 1
    22   15   16 1
    23   15   17 1
    24   15   39 1
    25   16   21 1
    26   17   18 1
    27   17   19 1
    28   17   40 1
    29   18   41 1
    30   19   20 1
    31   19   21 1
    32   19   42 1
    33   20   43 1
    34   21   22 1
    35   21   44 1
    36   22   23 ar
    37   22   31 ar
    38   23   24 ar
    39   23   45 1
    40   24   25 ar
    41   25   26 ar
    42   25   31 ar
    43   26   27 1
    44   26   28 ar
    45   27   46 1
    46   27   47 1
    47   28   29 ar
    48   29   30 ar
    49   29   48 1
    50   30   31 ar
@<TRIPOS>SUBSTRUCTURE
     1 ACP         1 GROUP 0 A     ****
@<TRIPOS>MOLECULE
[[5-(6-aminopurin-9-yl)-3,4-dihydroxy-tetrahydrofuran-2-yl]methoxy-hydroxy-phosphoryl]oxy-(phosphonomethyl)phosphinate
   48    50     1     0     0
SMALL
USER_CHARGES

@<TRIPOS>ATOM
      1 PG         -5.0957    4.6918    0.4882 P.3       1 ACP         1.6292
      2 O1G        -5.6746    3.9479   -0.6775 O.2       1 ACP        -0.8674
      3 O2G        -6.1708    5.3979    1.4659 O.3       1 ACP        -0.7977
      4 O3G        -4.1896    3.8092    1.4931 O.3       1 ACP        -0.7977
      5 PB         -2.4537    5.7923   -0.9579 P.3       1 ACP         1.4910
      6 O1B        -1.8060    7.1457   -1.1382 O.co2     1 ACP        -0.8292
      7 O2B        -2.8158    4.9098   -2.1298 O.co2     1 ACP        -0.8292
      8 C3B        -3.9955    6.0508    0.0308 C.3       1 ACP        -0.6453
      9 PA         -0.0715    4.4469    0.1409 P.3       1 ACP         1.7996
     10 O1A         0.9309    5.5629    0.0817 O.2       1 ACP        -0.8588
     11 O2A         0.0046    3.4141   -1.1020 O.3       1 ACP        -0.8037
     12 O3A        -1.6152    4.9291    0.1422 O.3       1 ACP        -0.7988
     13 O5'         0.0170    3.5129    1.4593 O.3       1 ACP        -0.5960
     14 C5'        -0.8811    2.4285    1.6206 C.3       1 ACP         0.1917
     15 C4'        -0.1994    1.3333    2.4288 C.3       1 ACP         0.0908
     16 O4'        -1.1285    0.2356    2.5840 O.3       1 ACP        -0.4111
     17 C3'         1.0324    0.7610    1.7344 C.3       1 ACP         0.0927
     18 O3'         1.9175    0.2377    2.7247 O.3       1 ACP        -0.6127
     19 C2'         0.4468   -0.3802    0.9263 C.3       1 ACP         0.1095
     20 O2'         1.3993   -1.3703    0.5961 O.3       1 ACP        -0.5953
     21 C1'        -0.6159   -0.9100    1.8769 C.3       1 ACP         0.4273
     22 N9         -1.7127   -1.6108    1.2130 N.pl3     1 ACP        -0.6934
     23 C8         -1.7712   -2.9546    0.9544 C.ar      1 ACP         0.5422
     24 N7         -2.8883   -3.2948    0.3462 N.2       1 ACP        -0.5596
     25 C5         -3.5834   -2.1202    0.2043 C.ar      1 ACP        -0.2259
     26 C6         -4.8225   -1.8251   -0.3554 C.ar      1 ACP         0.7526
     27 N6         -5.6154   -2.8394   -0.9189 N.pl3     1 ACP        -0.9660
     28 N1         -5.2589   -0.5425   -0.3507 N.ar      1 ACP        -0.8027
     29 C2         -4.4510    0.3913    0.2069 C.ar      1 ACP         0.6758
     30 N3         -3.2368    0.2296    0.7767 N.ar      1 ACP        -0.7221
     31 C4         -2.8684   -1.0596    0.7376 C.ar      1 ACP         0.5858
     32 HOG2       -6.8394    4.8409    1.9185 H         1 ACP         0.4705
     33 HOG3       -3.7849    4.2436    2.2739 H         1 ACP         0.4705
     34 H3B1       -4.5961    6.7747   -0.5315 H         1 ACP         0.1189
     35 H3B2       -3.6814    6.5473    0.9559 H         1 ACP         0.1189
     36 HOA2        0.8376    2.9203   -1.2580 H         1 ACP         0.4679
     37 H5'1       -1.7775    2.7842    2.1389 H         1 ACP         0.0587
     38 H5'2       -1.1659    2.0534    0.6322 H         1 ACP         0.0587
     39 H4'         0.0402    1.7079    3.4342 H         1 ACP         0.0938
     40 H3'         1.5907    1.4859    1.1353 H         1 ACP         0.0597
     41 HO3'        2.6839   -0.1150    2.2479 H         1 ACP         0.4554
     42 H2'        -0.0017    0.0018    0.0005 H         1 ACP         0.0710
     43 HO2'        2.0953   -0.9375    0.0709 H         1 ACP         0.4360
     44 H1'        -0.1998   -1.6319    2.6178 H         1 ACP         0.1247
     45 H8         -0.9745   -3.6312    1.2318 H         1 ACP         0.0875
     46 HN61       -5.2619   -3.7766   -0.9586 H         1 ACP         0.4433
     47 HN62       -6.4834   -2.5990   -1.3590 H         1 ACP         0.4433
     48 H2         -4.8317    1.4071    0.1930 H         1 ACP         0.0459
@<TRIPOS>BOND
     1    1    2 2
     2    1    3 1
     3    1    4 1
     4    1    8 1
     5    3   32 1
     6    4   33 1
     7    5    6 2
     8    5    7 1
     9    5    8 1
    10    5   12 1
    11    8   34 1
    12    8   35 1
    13    9   10 2
    14    9   11 1
    15    9   12 1
    16    9   13 1
    17   11   36 1
    18   13   14 1
    19   14   15 1
    20   14   37 1
    21   14   38 1
    22   15   16 1
    23   15   17 1
    24   15   39 1
    25   16   21 1
    26   17   18 1
    27   17   19 1
    28   17   40 1
    29   18   41 1
    30   19   20 1
    31   19   21 1
    32   19   42 1
    33   20   43 1
    34   21   22 1
    35   21   44 1
    36   22   23 ar
    37   22   31 ar
    38   23   24 ar
    39   23   45 1
    40   24   25 ar
    41   25   26 ar
    42   25   31 ar
    43   26   27 1
    44   26   28 ar
    45   27   46 1
    46   27   47 1
    47   28   29 ar
    48   29   30 ar
    49   29   48 1
    50   30   31 ar
@<TRIPOS>SUBSTRUCTURE
     1 ACP         1 GROUP 0 A     ****
@<TRIPOS>MOLECULE
[[5-(6-aminopurin-9-yl)-3,4-dihydroxy-tetrahydrofuran-2-yl]methoxy-hydroxy-phosphoryl]oxy-(phosphonomethyl)phosphinate
   48    50     1     0     0
SMALL
USER_CHARGES

@<TRIPOS>ATOM
      1 PG         -4.3643    3.6251   -2.2183 P.3       1 ACP         1.6292
      2 O1G        -4.0444    2.4335   -1.3668 O.2       1 ACP        -0.8674
      3 O2G        -4.3078    3.3754   -3.8134 O.3       1 ACP        -0.7977
      4 O3G        -5.8267    4.2709   -1.9856 O.3       1 ACP        -0.7977
      5 PB         -3.0530    5.8724   -0.3439 P.3       1 ACP         1.4910
      6 O1B        -4.4103    6.4045    0.0539 O.co2     1 ACP        -0.8292
      7 O2B        -1.8364    6.7629   -0.4448 O.co2     1 ACP        -0.8292
      8 C3B        -3.2530    5.0301   -1.9785 C.3       1 ACP        -0.6453
      9 PA         -2.5516    4.3890    2.1542 P.3       1 ACP         1.7996
     10 O1A        -3.7879    4.7308    2.9341 O.2       1 ACP        -0.8588
     11 O2A        -1.2616    5.2960    2.5158 O.3       1 ACP        -0.8037
     12 O3A        -2.6991    4.5573    0.5525 O.3       1 ACP        -0.7988
     13 O5'        -2.0397    2.8622    2.3121 O.3       1 ACP        -0.5960
     14 C5'        -0.8811    2.4285    1.6206 C.3       1 ACP         0.1917
     15 C4'        -0.1994    1.3333    2.4288 C.3       1 ACP         0.0908
     16 O4'        -1.1285    0.2356    2.5840 O.3       1 ACP        -0.4111
     17 C3'         1.0324    0.7610    1.7344 C.3       1 ACP         0.0927
     18 O3'         1.9175    0.2377    2.7247 O.3       1 ACP        -0.6127
     19 C2'         0.4468   -0.3802    0.9263 C.3       1 ACP         0.1095
     20 O2'         1.3993   -1.3703    0.5961 O.3       1 ACP        -0.5953
     21 C1'        -0.6159   -0.9100    1.8769 C.3       1 ACP         0.4273
     22 N9         -1.7127   -1.6108    1.2130 N.pl3     1 ACP        -0.6934
     23 C8         -2.8641   -1.0399    0.7392 C.ar      1 ACP         0.5422
     24 N7         -3.6659   -1.9257    0.1858 N.2       1 ACP        -0.5596
     25 C5         -3.0053   -3.1223    0.3069 C.ar      1 ACP        -0.2259
     26 C6         -3.3321   -4.4178   -0.0813 C.ar      1 ACP         0.7526
     27 N6         -4.5476   -4.6866   -0.7335 N.pl3     1 ACP        -0.9660
     28 N1         -2.4608   -5.4225    0.1773 N.ar      1 ACP        -0.8027
     29 C2         -1.3053   -5.1020    0.8081 C.ar      1 ACP         0.6758
     30 N3         -0.8788   -3.8921    1.2315 N.ar      1 ACP        -0.7221
     31 C4         -1.7870   -2.9477    0.9438 C.ar      1 ACP         0.5858
     32 HOG2       -4.9010    2.7027   -4.2106 H         1 ACP         0.4705
     33 HOG3       -6.0907    5.0531   -2.5155 H         1 ACP         0.4705
     34 H3B1       -2.2501    4.6999   -2.2719 H         1 ACP         0.1189
     35 H3B2       -3.5511    5.8117   -2.6866 H         1 ACP         0.1189
     36 HOA2       -0.9203    5.2897    3.4355 H         1 ACP         0.4679
     37 H5'1       -1.1760    2.0499    0.6365 H         1 ACP         0.0587
     38 H5'2       -0.2073    3.2811    1.4873 H         1 ACP         0.0587
     39 H4'         0.0402    1.7079    3.4342 H         1 ACP         0.0938
     40 H3'         1.5907    1.4859    1.1353 H         1 ACP         0.0597
     41 HO3'        2.6839   -0.1150    2.2479 H         1 ACP         0.4554
     42 H2'        -0.0017    0.0018    0.0005 H         1 ACP         0.0710
     43 HO2'        2.0953   -0.9375    0.0709 H         1 ACP         0.4360
     44 H1'        -0.1998   -1.6319    2.6178 H         1 ACP         0.1247
     45 H8         -3.0609    0.0200    0.8250 H         1 ACP         0.0875
     46 HN61       -5.2046   -3.9433   -0.8775 H         1 ACP         0.4433
     47 HN62       -4.7849   -5.6332   -0.9625 H         1 ACP         0.4433
     48 H2         -0.6318   -5.9307    0.9993 H         1 ACP         0.0459
@<TRIPOS>BOND
     1    1    2 2
     2    1    3 1
     3    1    4 1
     4    1    8 1
     5    3   32 1
     6    4   33 1
     7    5    6 2
     8    5    7 1
     9    5    8 1
    10    5   12 1
    11    8   34 1
    12    8   35 1
    13    9   10 2
    14    9   11 1
    15    9   12 1
    16    9   13 1
    17   11   36 1
    18   13   14 1
    19   14   15 1
    20   14   37 1
    21   14   38 1
    22   15   16 1
    23   15   17 1
    24   15   39 1
    25   16   21 1
    26   17   18 1
    27   17   19 1
    28   17   40 1
    29   18   41 1
    30   19   20 1
    31   19   21 1
    32   19   42 1
    33   20   43 1
    34   21   22 1
    35   21   44 1
    36   22   23 ar
    37   22   31 ar
    38   23   24 ar
    39   23   45 1
    40   24   25 ar
    41   25   26 ar
    42   25   31 ar
    43   26   27 1
    44   26   28 ar
    45   27   46 1
    46   27   47 1
    47   28   29 ar
    48   29   30 ar
    49   29   48 1
    50   30   31 ar
@<TRIPOS>SUBSTRUCTURE
     1 ACP         1 GROUP 0 A     ****
@<TRIPOS>MOLECULE
[[5-(6-aminopurin-9-yl)-3,4-dihydroxy-tetrahydrofuran-2-yl]methoxy-hydroxy-phosphoryl]oxy-(phosphonomethyl)phosphinate
   48    50     1     0     0
SMALL
USER_CHARGES

@<TRIPOS>ATOM
      1 PG         -1.8741    4.2408   -2.8401 P.3       1 ACP         1.6292
      2 O1G        -0.7467    5.1687   -3.1794 O.2       1 ACP        -0.8674
      3 O2G        -2.5863    3.5219   -4.0995 O.3       1 ACP        -0.7977
      4 O3G        -1.4900    3.0102   -1.8665 O.3       1 ACP        -0.7977
      5 PB         -3.0530    5.8724   -0.3439 P.3       1 ACP         1.4910
      6 O1B        -4.4103    6.4045    0.0539 O.co2     1 ACP        -0.8292
      7 O2B        -1.8364    6.7629   -0.4448 O.co2     1 ACP        -0.8292
      8 C3B        -3.2530    5.0301   -1.9785 C.3       1 ACP        -0.6453
      9 PA         -2.5516    4.3890    2.1542 P.3       1 ACP         1.7996
     10 O1A        -3.7879    4.7308    2.9341 O.2       1 ACP        -0.8588
     11 O2A        -1.2616    5.2960    2.5158 O.3       1 ACP        -0.8037
     12 O3A        -2.6991    4.5573    0.5525 O.3       1 ACP        -0.7988
     13 O5'        -2.0397    2.8622    2.3121 O.3       1 ACP        -0.5960
     14 C5'        -0.8811    2.4285    1.6206 C.3       1 ACP         0.1917
     15 C4'        -0.1994    1.3333    2.4288 C.3       1 ACP         0.0908
     16 O4'        -1.1285    0.2356    2.5840 O.3       1 ACP        -0.4111
     17 C3'         1.0324    0.7610    1.7344 C.3       1 ACP         0.0927
     18 O3'         1.9175    0.2377    2.7247 O.3       1 ACP        -0.6127
     19 C2'         0.4468   -0.3802    0.9263 C.3       1 ACP         0.1095
     20 O2'         1.3993   -1.3703    0.5961 O.3       1 ACP        -0.5953
     21 C1'        -0.6159   -0.9100    1.8769 C.3       1 ACP         0.4273
     22 N9         -1.7127   -1.6108    1.2130 N.pl3     1 ACP        -0.6934
     23 C8         -2.8641   -1.0399    0.7392 C.ar      1 ACP         0.5422
     24 N7         -3.6659   -1.9257    0.1858 N.2       1 ACP        -0.5596
     25 C5         -3.0053   -3.1223    0.3069 C.ar      1 ACP        -0.2259
     26 C6         -3.3321   -4.4178   -0.0813 C.ar      1 ACP         0.7526
     27 N6         -4.5476   -4.6866   -0.7335 N.pl3     1 ACP        -0.9660
     28 N1         -2.4608   -5.4225    0.1773 N.ar      1 ACP        -0.8027
     29 C2         -1.3053   -5.1020    0.8081 C.ar      1 ACP         0.6758
     30 N3         -0.8788   -3.8921    1.2315 N.ar      1 ACP        -0.7221
     31 C4         -1.7870   -2.9477    0.9438 C.ar      1 ACP         0.5858
     32 HOG2       -2.0484    2.9487   -4.6863 H         1 ACP         0.4705
     33 HOG3       -2.1884    2.3706   -1.6107 H         1 ACP         0.4705
     34 H3B1       -3.6662    5.7845   -2.6575 H         1 ACP         0.1189
     35 H3B2       -4.0303    4.2711   -1.8342 H         1 ACP         0.1189
     36 HOA2       -0.9203    5.2897    3.4355 H         1 ACP         0.4679
     37 H5'1       -1.1760    2.0499    0.6365 H         1 ACP         0.0587
     38 H5'2       -0.2073    3.2811    1.4873 H         1 ACP         0.0587
     39 H4'         0.0402    1.7079    3.4342 H         1 ACP         0.0938
     40 H3'         1.5907    1.4859    1.1353 H         1 ACP         0.0597
     41 HO3'        2.6839   -0.1150    2.2479 H         1 ACP         0.4554
     42 H2'        -0.0017    0.0018    0.0005 H         1 ACP         0.0710
     43 HO2'        2.0953   -0.9375    0.0709 H         1 ACP         0.4360
     44 H1'        -0.1998   -1.6319    2.6178 H         1 ACP         0.1247
     45 H8         -3.0609    0.0200    0.8250 H         1 ACP         0.0875
     46 HN61       -5.2046   -3.9433   -0.8775 H         1 ACP         0.4433
     47 HN62       -4.7849   -5.6332   -0.9625 H         1 ACP         0.4433
     48 H2         -0.6318   -5.9307    0.9993 H         1 ACP         0.0459
@<TRIPOS>BOND
     1    1    2 2
     2    1    3 1
     3    1    4 1
     4    1    8 1
     5    3   32 1
     6    4   33 1
     7    5    6 2
     8    5    7 1
     9    5    8 1
    10    5   12 1
    11    8   34 1
    12    8   35 1
    13    9   10 2
    14    9   11 1
    15    9   12 1
    16    9   13 1
    17   11   36 1
    18   13   14 1
    19   14   15 1
    20   14   37 1
    21   14   38 1
    22   15   16 1
    23   15   17 1
    24   15   39 1
    25   16   21 1
    26   17   18 1
    27   17   19 1
    28   17   40 1
    29   18   41 1
    30   19   20 1
    31   19   21 1
    32   19   42 1
    33   20   43 1
    34   21   22 1
    35   21   44 1
    36   22   23 ar
    37   22   31 ar
    38   23   24 ar
    39   23   45 1
    40   24   25 ar
    41   25   26 ar
    42   25   31 ar
    43   26   27 1
    44   26   28 ar
    45   27   46 1
    46   27   47 1
    47   28   29 ar
    48   29   30 ar
    49   29   48 1
    50   30   31 ar
@<TRIPOS>SUBSTRUCTURE
     1 ACP         1 GROUP 0 A     ****
@<TRIPOS>MOLECULE
[[5-(6-aminopurin-9-yl)-3,4-dihydroxy-tetrahydrofuran-2-yl]methoxy-hydroxy-phosphoryl]oxy-(phosphonomethyl)phosphinate
   48    50     1     0     0
SMALL
USER_CHARGES

@<TRIPOS>ATOM
      1 PG         -5.2250    3.4645    1.6537 P.3       1 ACP         1.6292
      2 O1G        -4.5631    3.2557    0.3249 O.2       1 ACP        -0.8674
      3 O2G        -6.8360    3.5809    1.6175 O.3       1 ACP        -0.7977
      4 O3G        -4.9511    2.3130    2.7531 O.3       1 ACP        -0.7977
      5 PB         -2.9637    5.3042    2.9895 P.3       1 ACP         1.4910
      6 O1B        -2.5408    4.1942    3.9236 O.co2     1 ACP        -0.8292
      7 O2B        -2.8716    6.7620    3.3766 O.co2     1 ACP        -0.8292
      8 C3B        -4.7188    4.9750    2.5072 C.3       1 ACP        -0.6453
      9 PA         -0.7171    5.0024    1.1041 P.3       1 ACP         1.7996
     10 O1A         0.0755    6.2388    1.4152 O.2       1 ACP        -0.8588
     11 O2A        -0.7678    4.6191   -0.4668 O.3       1 ACP        -0.8037
     12 O3A        -2.2759    5.0787    1.5285 O.3       1 ACP        -0.7988
     13 O5'        -0.2069    3.6554    1.8412 O.3       1 ACP        -0.5960
     14 C5'        -0.8811    2.4285    1.6206 C.3       1 ACP         0.1917
     15 C4'        -0.1994    1.3333    2.4288 C.3       1 ACP         0.0908
     16 O4'        -1.1285    0.2356    2.5840 O.3       1 ACP        -0.4111
     17 C3'         1.0324    0.7610    1.7344 C.3       1 ACP         0.0927
     18 O3'         1.9175    0.2377    2.7247 O.3       1 ACP        -0.6127
     19 C2'         0.4468   -0.3802    0.9263 C.3       1 ACP         0.1095
     20 O2'         1.3993   -1.3703    0.5961 O.3       1 ACP        -0.5953
     21 C1'        -0.6159   -0.9100    1.8769 C.3       1 ACP         0.4273
     22 N9         -1.7127   -1.6108    1.2130 N.pl3     1 ACP        -0.6934
     23 C8         -2.0877   -2.9101    1.4304 C.ar      1 ACP         0.5422
     24 N7         -3.1152   -3.2613    0.6857 N.2       1 ACP        -0.5596
     25 C5         -3.4186   -2.1409   -0.0462 C.ar      1 ACP        -0.2259
     26 C6         -4.3953   -1.8809   -1.0023 C.ar      1 ACP         0.7526
     27 N6         -5.3118   -2.8767   -1.3812 N.pl3     1 ACP        -0.9660
     28 N1         -4.4538   -0.6507   -1.5667 N.ar      1 ACP        -0.8027
     29 C2         -3.5442    0.2679   -1.1609 C.ar      1 ACP         0.6758
     30 N3         -2.5561    0.1361   -0.2491 N.ar      1 ACP        -0.7221
     31 C4         -2.5568   -1.1019    0.2674 C.ar      1 ACP         0.5858
     32 HOG2       -7.3217    3.7180    2.4586 H         1 ACP         0.4705
     33 HOG3       -5.2240    1.3918    2.5548 H         1 ACP         0.4705
     34 H3B1       -5.0206    5.8176    1.8749 H         1 ACP         0.1189
     35 H3B2       -5.3040    5.0442    3.4313 H         1 ACP         0.1189
     36 HOA2        0.0730    4.4355   -0.9374 H         1 ACP         0.4679
     37 H5'1       -1.9259    2.5372    1.9293 H         1 ACP         0.0587
     38 H5'2       -0.8477    2.1923    0.5521 H         1 ACP         0.0587
     39 H4'         0.0402    1.7079    3.4342 H         1 ACP         0.0938
     40 H3'         1.5907    1.4859    1.1353 H         1 ACP         0.0597
     41 HO3'        2.6839   -0.1150    2.2479 H         1 ACP         0.4554
     42 H2'        -0.0017    0.0018    0.0005 H         1 ACP         0.0710
     43 HO2'        0.9369   -2.0558    0.0825 H         1 ACP         0.4360
     44 H1'        -0.1998   -1.6319    2.6178 H         1 ACP         0.1247
     45 H8         -1.5778   -3.5473    2.1399 H         1 ACP         0.0875
     46 HN61       -5.2294   -3.7965   -0.9914 H         1 ACP         0.4433
     47 HN62       -5.9774   -2.6837   -2.1055 H         1 ACP         0.4433
     48 H2         -3.6201    1.2414   -1.6336 H         1 ACP         0.0459
@<TRIPOS>BOND
     1    1    2 2
     2    1    3 1
     3    1    4 1
     4    1    8 1
     5    3   32 1
     6    4   33 1
     7    5    6 2
     8    5    7 1
     9    5    8 1
    10    5   12 1
    11    8   34 1
    12    8   35 1
    13    9   10 2
    14    9   11 1
    15    9   12 1
    16    9   13 1
    17   11   36 1
    18   13   14 1
    19   14   15 1
    20   14   37 1
    21   14   38 1
    22   15   16 1
    23   15   17 1
    24   15   39 1
    25   16   21 1
    26   17   18 1
    27   17   19 1
    28   17   40 1
    29   18   41 1
    30   19   20 1
    31   19   21 1
    32   19   42 1
    33   20   43 1
    34   21   22 1
    35   21   44 1
    36   22   23 ar
    37   22   31 ar
    38   23   24 ar
    39   23   45 1
    40   24   25 ar
    41   25   26 ar
    42   25   31 ar
    43   26   27 1
    44   26   28 ar
    45   27   46 1
    46   27   47 1
    47   28   29 ar
    48   29   30 ar
    49   29   48 1
    50   30   31 ar
@<TRIPOS>SUBSTRUCTURE
     1 ACP         1 GROUP 0 A     ****
@<TRIPOS>MOLECULE
[[5-(6-aminopurin-9-yl)-3,4-dihydroxy-tetrahydrofuran-2-yl]methoxy-hydroxy-phosphoryl]oxy-(phosphonomethyl)phosphinate
   48    50     1     0     0
SMALL
USER_CHARGES

@<TRIPOS>ATOM
      1 PG         -5.0957    4.6918    0.4882 P.3       1 ACP         1.6292
      2 O1G        -4.4473    3.6268    1.3205 O.2       1 ACP        -0.8674
      3 O2G        -5.6884    4.2001   -0.9320 O.3       1 ACP        -0.7977
      4 O3G        -6.3442    5.4483    1.1803 O.3       1 ACP        -0.7977
      5 PB         -2.4537    5.7923   -0.9579 P.3       1 ACP         1.4910
      6 O1B        -1.8060    7.1457   -1.1382 O.co2     1 ACP        -0.8292
      7 O2B        -2.8158    4.9098   -2.1298 O.co2     1 ACP        -0.8292
      8 C3B        -3.9955    6.0508    0.0308 C.3       1 ACP        -0.6453
      9 PA         -0.0715    4.4469    0.1409 P.3       1 ACP         1.7996
     10 O1A         0.9309    5.5629    0.0817 O.2       1 ACP        -0.8588
     11 O2A         0.0046    3.4141   -1.1020 O.3       1 ACP        -0.8037
     12 O3A        -1.6152    4.9291    0.1422 O.3       1 ACP        -0.7988
     13 O5'         0.0170    3.5129    1.4593 O.3       1 ACP        -0.5960
     14 C5'        -0.8811    2.4285    1.6206 C.3       1 ACP         0.1917
     15 C4'        -0.1994    1.3333    2.4288 C.3       1 ACP         0.0908
     16 O4'        -1.1285    0.2356    2.5840 O.3       1 ACP        -0.4111
     17 C3'         1.0324    0.7610    1.7344 C.3       1 ACP         0.0927
     18 O3'         1.9175    0.2377    2.7247 O.3       1 ACP        -0.6127
     19 C2'         0.4468   -0.3802    0.9263 C.3       1 ACP         0.1095
     20 O2'         1.3993   -1.3703    0.5961 O.3       1 ACP        -0.5953
     21 C1'        -0.6159   -0.9100    1.8769 C.3       1 ACP         0.4273
     22 N9         -1.7127   -1.6108    1.2130 N.pl3     1 ACP        -0.6934
     23 C8         -2.8641   -1.0399    0.7392 C.ar      1 ACP         0.5422
     24 N7         -3.6659   -1.9257    0.1858 N.2       1 ACP        -0.5596
     25 C5         -3.0053   -3.1223    0.3069 C.ar      1 ACP        -0.2259
     26 C6         -3.3321   -4.4178   -0.0813 C.ar      1 ACP         0.7526
     27 N6         -4.5476   -4.6866   -0.7335 N.pl3     1 ACP        -0.9660
     28 N1         -2.4608   -5.4225    0.1773 N.ar      1 ACP        -0.8027
     29 C2         -1.3053   -5.1020    0.8081 C.ar      1 ACP         0.6758
     30 N3         -0.8788   -3.8921    1.2315 N.ar      1 ACP        -0.7221
     31 C4         -1.7870   -2.9477    0.9438 C.ar      1 ACP         0.5858
     32 HOG2       -6.1238    4.8553   -1.5179 H         1 ACP         0.4705
     33 HOG3       -7.1279    4.9234    1.4499 H         1 ACP         0.4705
     34 H3B1       -4.5961    6.7747   -0.5315 H         1 ACP         0.1189
     35 H3B2       -3.6814    6.5473    0.9559 H         1 ACP         0.1189
     36 HOA2        0.8376    2.9203   -1.2580 H         1 ACP         0.4679
     37 H5'1       -1.7775    2.7842    2.1389 H         1 ACP         0.0587
     38 H5'2       -1.1659    2.0534    0.6322 H         1 ACP         0.0587
     39 H4'         0.0402    1.7079    3.4342 H         1 ACP         0.0938
     40 H3'         1.5907    1.4859    1.1353 H         1 ACP         0.0597
     41 HO3'        2.6839   -0.1150    2.2479 H         1 ACP         0.4554
     42 H2'        -0.0017    0.0018    0.0005 H         1 ACP         0.0710
     43 HO2'        2.0953   -0.9375    0.0709 H         1 ACP         0.4360
     44 H1'        -0.1998   -1.6319    2.6178 H         1 ACP         0.1247
     45 H8         -3.0609    0.0200    0.8250 H         1 ACP         0.0875
     46 HN61       -5.2046   -3.9433   -0.8775 H         1 ACP         0.4433
     47 HN62       -4.7849   -5.6332   -0.9625 H         1 ACP         0.4433
     48 H2         -0.6318   -5.9307    0.9993 H         1 ACP         0.0459
@<TRIPOS>BOND
     1    1    2 2
     2    1    3 1
     3    1    4 1
     4    1    8 1
     5    3   32 1
     6    4   33 1
     7    5    6 2
     8    5    7 1
     9    5    8 1
    10    5   12 1
    11    8   34 1
    12    8   35 1
    13    9   10 2
    14    9   11 1
    15    9   12 1
    16    9   13 1
    17   11   36 1
    18   13   14 1
    19   14   15 1
    20   14   37 1
    21   14   38 1
    22   15   16 1
    23   15   17 1
    24   15   39 1
    25   16   21 1
    26   17   18 1
    27   17   19 1
    28   17   40 1
    29   18   41 1
    30   19   20 1
    31   19   21 1
    32   19   42 1
    33   20   43 1
    34   21   22 1
    35   21   44 1
    36   22   23 ar
    37   22   31 ar
    38   23   24 ar
    39   23   45 1
    40   24   25 ar
    41   25   26 ar
    42   25   31 ar
    43   26   27 1
    44   26   28 ar
    45   27   46 1
    46   27   47 1
    47   28   29 ar
    48   29   30 ar
    49   29   48 1
    50   30   31 ar
@<TRIPOS>SUBSTRUCTURE
     1 ACP         1 GROUP 0 A     ****
@<TRIPOS>MOLECULE
[[5-(6-aminopurin-9-yl)-3,4-dihydroxy-tetrahydrofuran-2-yl]methoxy-hydroxy-phosphoryl]oxy-(phosphonomethyl)phosphinate
   48    50     1     0     0
SMALL
USER_CHARGES

@<TRIPOS>ATOM
      1 PG         -4.8422    3.9860    0.2685 P.3       1 ACP         1.6292
      2 O1G        -4.9532    3.1687    1.5203 O.2       1 ACP        -0.8674
      3 O2G        -3.9218    3.3508   -0.8975 O.3       1 ACP        -0.7977
      4 O3G        -6.2389    4.3024   -0.4790 O.3       1 ACP        -0.7977
      5 PB         -2.4245    5.8801    1.1905 P.3       1 ACP         1.4910
      6 O1B        -2.3933    5.2560    2.5664 O.co2     1 ACP        -0.8292
      7 O2B        -2.0583    7.3269    0.9534 O.co2     1 ACP        -0.8292
      8 C3B        -4.1273    5.6277    0.5134 C.3       1 ACP        -0.6453
      9 PA         -0.0715    4.4469    0.1409 P.3       1 ACP         1.7996
     10 O1A         0.9309    5.5629    0.0817 O.2       1 ACP        -0.8588
     11 O2A         0.0046    3.4141   -1.1020 O.3       1 ACP        -0.8037
     12 O3A        -1.6152    4.9291    0.1422 O.3       1 ACP        -0.7988
     13 O5'         0.0170    3.5129    1.4593 O.3       1 ACP        -0.5960
     14 C5'        -0.8811    2.4285    1.6206 C.3       1 ACP         0.1917
     15 C4'        -0.1994    1.3333    2.4288 C.3       1 ACP         0.0908
     16 O4'        -1.1285    0.2356    2.5840 O.3       1 ACP        -0.4111
     17 C3'         1.0324    0.7610    1.7344 C.3       1 ACP         0.0927
     18 O3'         1.9175    0.2377    2.7247 O.3       1 ACP        -0.6127
     19 C2'         0.4468   -0.3802    0.9263 C.3       1 ACP         0.1095
     20 O2'         1.3993   -1.3703    0.5961 O.3       1 ACP        -0.5953
     21 C1'        -0.6159   -0.9100    1.8769 C.3       1 ACP         0.4273
     22 N9         -1.7127   -1.6108    1.2130 N.pl3     1 ACP        -0.6934
     23 C8         -2.8641   -1.0399    0.7392 C.ar      1 ACP         0.5422
     24 N7         -3.6659   -1.9257    0.1858 N.2       1 ACP        -0.5596
     25 C5         -3.0053   -3.1223    0.3069 C.ar      1 ACP        -0.2259
     26 C6         -3.3321   -4.4178   -0.0813 C.ar      1 ACP         0.7526
     27 N6         -4.5476   -4.6866   -0.7335 N.pl3     1 ACP        -0.9660
     28 N1         -2.4608   -5.4225    0.1773 N.ar      1 ACP        -0.8027
     29 C2         -1.3053   -5.1020    0.8081 C.ar      1 ACP         0.6758
     30 N3         -0.8788   -3.8921    1.2315 N.ar      1 ACP        -0.7221
     31 C4         -1.7870   -2.9477    0.9438 C.ar      1 ACP         0.5858
     32 HOG2       -2.9754    3.1719   -0.7117 H         1 ACP         0.4705
     33 HOG3       -6.7884    3.5542   -0.7963 H         1 ACP         0.4705
     34 H3B1       -4.1428    6.1330   -0.4589 H         1 ACP         0.1189
     35 H3B2       -4.8006    6.1862    1.1736 H         1 ACP         0.1189
     36 HOA2        0.8376    2.9203   -1.2580 H         1 ACP         0.4679
     37 H5'1       -1.7775    2.7842    2.1389 H         1 ACP         0.0587
     38 H5'2       -1.1659    2.0534    0.6322 H         1 ACP         0.0587
     39 H4'         0.0402    1.7079    3.4342 H         1 ACP         0.0938
     40 H3'         1.5907    1.4859    1.1353 H         1 ACP         0.0597
     41 HO3'        2.6839   -0.1150    2.2479 H         1 ACP         0.4554
     42 H2'        -0.0017    0.0018    0.0005 H         1 ACP         0.0710
     43 HO2'        2.0953   -0.9375    0.0709 H         1 ACP         0.4360
     44 H1'        -0.1998   -1.6319    2.6178 H         1 ACP         0.1247
     45 H8         -3.0609    0.0200    0.8250 H         1 ACP         0.0875
     46 HN61       -5.2046   -3.9433   -0.8775 H         1 ACP         0.4433
     47 HN62       -4.7849   -5.6332   -0.9625 H         1 ACP         0.4433
     48 H2         -0.6318   -5.9307    0.9993 H         1 ACP         0.0459
@<TRIPOS>BOND
     1    1    2 2
     2    1    3 1
     3    1    4 1
     4    1    8 1
     5    3   32 1
     6    4   33 1
     7    5    6 2
     8    5    7 1
     9    5    8 1
    10    5   12 1
    11    8   34 1
    12    8   35 1
    13    9   10 2
    14    9   11 1
    15    9   12 1
    16    9   13 1
    17   11   36 1
    18   13   14 1
    19   14   15 1
    20   14   37 1
    21   14   38 1
    22   15   16 1
    23   15   17 1
    24   15   39 1
    25   16   21 1
    26   17   18 1
    27   17   19 1
    28   17   40 1
    29   18   41 1
    30   19   20 1
    31   19   21 1
    32   19   42 1
    33   20   43 1
    34   21   22 1
    35   21   44 1
    36   22   23 ar
    37   22   31 ar
    38   23   24 ar
    39   23   45 1
    40   24   25 ar
    41   25   26 ar
    42   25   31 ar
    43   26   27 1
    44   26   28 ar
    45   27   46 1
    46   27   47 1
    47   28   29 ar
    48   29   30 ar
    49   29   48 1
    50   30   31 ar
@<TRIPOS>SUBSTRUCTURE
     1 ACP         1 GROUP 0 A     ****
@<TRIPOS>MOLECULE
[[5-(6-aminopurin-9-yl)-3,4-dihydroxy-tetrahydrofuran-2-yl]methoxy-hydroxy-phosphoryl]oxy-(phosphonomethyl)phosphinate
   48    50     1     0     0
SMALL
USER_CHARGES

@<TRIPOS>ATOM
      1 PG         -3.1728    6.4652    4.2196 P.3       1 ACP         1.6292
      2 O1G        -2.1639    5.4002    4.5282 O.2       1 ACP        -0.8674
      3 O2G        -4.4643    6.5017    5.1895 O.3       1 ACP        -0.7977
      4 O3G        -2.6172    7.9814    4.2683 O.3       1 ACP        -0.7977
      5 PB         -2.8791    6.4399    1.0265 P.3       1 ACP         1.4910
      6 O1B        -2.1857    7.7826    1.0290 O.co2     1 ACP        -0.8292
      7 O2B        -3.7568    5.9885   -0.1177 O.co2     1 ACP        -0.8292
      8 C3B        -3.8972    6.3468    2.5681 C.3       1 ACP        -0.6453
      9 PA         -0.4421    4.8274    0.6350 P.3       1 ACP         1.7996
     10 O1A         0.5938    5.9089    0.5310 O.2       1 ACP        -0.8588
     11 O2A        -0.9616    4.2610   -0.7886 O.3       1 ACP        -0.8037
     12 O3A        -1.8029    5.2700    1.3888 O.3       1 ACP        -0.7988
     13 O5'         0.0170    3.5129    1.4593 O.3       1 ACP        -0.5960
     14 C5'        -0.8811    2.4285    1.6206 C.3       1 ACP         0.1917
     15 C4'        -0.1994    1.3333    2.4288 C.3       1 ACP         0.0908
     16 O4'        -1.1285    0.2356    2.5840 O.3       1 ACP        -0.4111
     17 C3'         1.0324    0.7610    1.7344 C.3       1 ACP         0.0927
     18 O3'         1.9175    0.2377    2.7247 O.3       1 ACP        -0.6127
     19 C2'         0.4468   -0.3802    0.9263 C.3       1 ACP         0.1095
     20 O2'         1.3993   -1.3703    0.5961 O.3       1 ACP        -0.5953
     21 C1'        -0.6159   -0.9100    1.8769 C.3       1 ACP         0.4273
     22 N9         -1.7127   -1.6108    1.2130 N.pl3     1 ACP        -0.6934
     23 C8         -2.8641   -1.0399    0.7392 C.ar      1 ACP         0.5422
     24 N7         -3.6659   -1.9257    0.1858 N.2       1 ACP        -0.5596
     25 C5         -3.0053   -3.1223    0.3069 C.ar      1 ACP        -0.2259
     26 C6         -3.3321   -4.4178   -0.0813 C.ar      1 ACP         0.7526
     27 N6         -4.5476   -4.6866   -0.7335 N.pl3     1 ACP        -0.9660
     28 N1         -2.4608   -5.4225    0.1773 N.ar      1 ACP        -0.8027
     29 C2         -1.3053   -5.1020    0.8081 C.ar      1 ACP         0.6758
     30 N3         -0.8788   -3.8921    1.2315 N.ar      1 ACP        -0.7221
     31 C4         -1.7870   -2.9477    0.9438 C.ar      1 ACP         0.5858
     32 HOG2       -4.3331    6.6475    6.1506 H         1 ACP         0.4705
     33 HOG3       -3.2333    8.7198    4.0748 H         1 ACP         0.4705
     34 H3B1       -4.4309    5.3910    2.5193 H         1 ACP         0.1189
     35 H3B2       -4.6509    7.1376    2.4805 H         1 ACP         0.1189
     36 HOA2       -0.3137    3.8525   -1.4014 H         1 ACP         0.4679
     37 H5'1       -1.7775    2.7842    2.1389 H         1 ACP         0.0587
     38 H5'2       -1.1659    2.0534    0.6322 H         1 ACP         0.0587
     39 H4'         0.0402    1.7079    3.4342 H         1 ACP         0.0938
     40 H3'         1.5907    1.4859    1.1353 H         1 ACP         0.0597
     41 HO3'        2.6839   -0.1150    2.2479 H         1 ACP         0.4554
     42 H2'        -0.0017    0.0018    0.0005 H         1 ACP         0.0710
     43 HO2'        2.0953   -0.9375    0.0709 H         1 ACP         0.4360
     44 H1'        -0.1998   -1.6319    2.6178 H         1 ACP         0.1247
     45 H8         -3.0609    0.0200    0.8250 H         1 ACP         0.0875
     46 HN61       -5.2046   -3.9433   -0.8775 H         1 ACP         0.4433
     47 HN62       -4.7849   -5.6332   -0.9625 H         1 ACP         0.4433
     48 H2         -0.6318   -5.9307    0.9993 H         1 ACP         0.0459
@<TRIPOS>BOND
     1    1    2 2
     2    1    3 1
     3    1    4 1
     4    1    8 1
     5    3   32 1
     6    4   33 1
     7    5    6 2
     8    5    7 1
     9    5    8 1
    10    5   12 1
    11    8   34 1
    12    8   35 1
    13    9   10 2
    14    9   11 1
    15    9   12 1
    16    9   13 1
    17   11   36 1
    18   13   14 1
    19   14   15 1
    20   14   37 1
    21   14   38 1
    22   15   16 1
    23   15   17 1
    24   15   39 1
    25   16   21 1
    26   17   18 1
    27   17   19 1
    28   17   40 1
    29   18   41 1
    30   19   20 1
    31   19   21 1
    32   19   42 1
    33   20   43 1
    34   21   22 1
    35   21   44 1
    36   22   23 ar
    37   22   31 ar
    38   23   24 ar
    39   23   45 1
    40   24   25 ar
    41   25   26 ar
    42   25   31 ar
    43   26   27 1
    44   26   28 ar
    45   27   46 1
    46   27   47 1
    47   28   29 ar
    48   29   30 ar
    49   29   48 1
    50   30   31 ar
@<TRIPOS>SUBSTRUCTURE
     1 ACP         1 GROUP 0 A     ****
@<TRIPOS>MOLECULE
[[5-(6-aminopurin-9-yl)-3,4-dihydroxy-tetrahydrofuran-2-yl]methoxy-hydroxy-phosphoryl]oxy-(phosphonomethyl)phosphinate
   48    50     1     0     0
SMALL
USER_CHARGES

@<TRIPOS>ATOM
      1 PG         -4.9042    4.9043    2.9819 P.3       1 ACP         1.6292
      2 O1G        -4.1272    3.6302    3.1247 O.2       1 ACP        -0.8674
      3 O2G        -6.0389    4.9017    1.8318 O.3       1 ACP        -0.7977
      4 O3G        -5.7023    5.3813    4.3030 O.3       1 ACP        -0.7977
      5 PB         -2.8791    6.4399    1.0265 P.3       1 ACP         1.4910
      6 O1B        -2.1857    7.7826    1.0290 O.co2     1 ACP        -0.8292
      7 O2B        -3.7568    5.9885   -0.1177 O.co2     1 ACP        -0.8292
      8 C3B        -3.8972    6.3468    2.5681 C.3       1 ACP        -0.6453
      9 PA         -0.4421    4.8274    0.6350 P.3       1 ACP         1.7996
     10 O1A         0.5938    5.9089    0.5310 O.2       1 ACP        -0.8588
     11 O2A        -0.9616    4.2610   -0.7886 O.3       1 ACP        -0.8037
     12 O3A        -1.8029    5.2700    1.3888 O.3       1 ACP        -0.7988
     13 O5'         0.0170    3.5129    1.4593 O.3       1 ACP        -0.5960
     14 C5'        -0.8811    2.4285    1.6206 C.3       1 ACP         0.1917
     15 C4'        -0.1994    1.3333    2.4288 C.3       1 ACP         0.0908
     16 O4'        -1.1285    0.2356    2.5840 O.3       1 ACP        -0.4111
     17 C3'         1.0324    0.7610    1.7344 C.3       1 ACP         0.0927
     18 O3'         1.9175    0.2377    2.7247 O.3       1 ACP        -0.6127
     19 C2'         0.4468   -0.3802    0.9263 C.3       1 ACP         0.1095
     20 O2'         1.3993   -1.3703    0.5961 O.3       1 ACP        -0.5953
     21 C1'        -0.6159   -0.9100    1.8769 C.3       1 ACP         0.4273
     22 N9         -1.7127   -1.6108    1.2130 N.pl3     1 ACP        -0.6934
     23 C8         -1.7712   -2.9546    0.9544 C.ar      1 ACP         0.5422
     24 N7         -2.8883   -3.2948    0.3462 N.2       1 ACP        -0.5596
     25 C5         -3.5834   -2.1202    0.2043 C.ar      1 ACP        -0.2259
     26 C6         -4.8225   -1.8251   -0.3554 C.ar      1 ACP         0.7526
     27 N6         -5.6154   -2.8394   -0.9189 N.pl3     1 ACP        -0.9660
     28 N1         -5.2589   -0.5425   -0.3507 N.ar      1 ACP        -0.8027
     29 C2         -4.4510    0.3913    0.2069 C.ar      1 ACP         0.6758
     30 N3         -3.2368    0.2296    0.7767 N.ar      1 ACP        -0.7221
     31 C4         -2.8684   -1.0596    0.7376 C.ar      1 ACP         0.5858
     32 HOG2       -6.5781    5.7094    1.6942 H         1 ACP         0.4705
     33 HOG3       -6.3866    4.7907    4.6841 H         1 ACP         0.4705
     34 H3B1       -4.5710    7.2105    2.5366 H         1 ACP         0.1189
     35 H3B2       -3.2028    6.5144    3.3992 H         1 ACP         0.1189
     36 HOA2       -0.3137    3.8525   -1.4014 H         1 ACP         0.4679
     37 H5'1       -1.7775    2.7842    2.1389 H         1 ACP         0.0587
     38 H5'2       -1.1659    2.0534    0.6322 H         1 ACP         0.0587
     39 H4'         0.0402    1.7079    3.4342 H         1 ACP         0.0938
     40 H3'         1.5907    1.4859    1.1353 H         1 ACP         0.0597
     41 HO3'        2.6839   -0.1150    2.2479 H         1 ACP         0.4554
     42 H2'        -0.0017    0.0018    0.0005 H         1 ACP         0.0710
     43 HO2'        2.0953   -0.9375    0.0709 H         1 ACP         0.4360
     44 H1'        -0.1998   -1.6319    2.6178 H         1 ACP         0.1247
     45 H8         -0.9745   -3.6312    1.2318 H         1 ACP         0.0875
     46 HN61       -5.2619   -3.7766   -0.9586 H         1 ACP         0.4433
     47 HN62       -6.4834   -2.5990   -1.3590 H         1 ACP         0.4433
     48 H2         -4.8317    1.4071    0.1930 H         1 ACP         0.0459
@<TRIPOS>BOND
     1    1    2 2
     2    1    3 1
     3    1    4 1
     4    1    8 1
     5    3   32 1
     6    4   33 1
     7    5    6 2
     8    5    7 1
     9    5    8 1
    10    5   12 1
    11    8   34 1
    12    8   35 1
    13    9   10 2
    14    9   11 1
    15    9   12 1
    16    9   13 1
    17   11   36 1
    18   13   14 1
    19   14   15 1
    20   14   37 1
    21   14   38 1
    22   15   16 1
    23   15   17 1
    24   15   39 1
    25   16   21 1
    26   17   18 1
    27   17   19 1
    28   17   40 1
    29   18   41 1
    30   19   20 1
    31   19   21 1
    32   19   42 1
    33   20   43 1
    34   21   22 1
    35   21   44 1
    36   22   23 ar
    37   22   31 ar
    38   23   24 ar
    39   23   45 1
    40   24   25 ar
    41   25   26 ar
    42   25   31 ar
    43   26   27 1
    44   26   28 ar
    45   27   46 1
    46   27   47 1
    47   28   29 ar
    48   29   30 ar
    49   29   48 1
    50   30   31 ar
@<TRIPOS>SUBSTRUCTURE
     1 ACP         1 GROUP 0 A     ****
@<TRIPOS>MOLECULE
[[5-(6-aminopurin-9-yl)-3,4-dihydroxy-tetrahydrofuran-2-yl]methoxy-hydroxy-phosphoryl]oxy-(phosphonomethyl)phosphinate
   48    50     1     0     0
SMALL
USER_CHARGES

@<TRIPOS>ATOM
      1 PG         -1.8741    4.2408   -2.8401 P.3       1 ACP         1.6292
      2 O1G        -1.2207    3.1316   -2.0718 O.2       1 ACP        -0.8674
      3 O2G        -0.9140    5.4833   -3.2200 O.3       1 ACP        -0.7977
      4 O3G        -2.5232    3.8142   -4.2566 O.3       1 ACP        -0.7977
      5 PB         -3.0530    5.8724   -0.3439 P.3       1 ACP         1.4910
      6 O1B        -4.4103    6.4045    0.0539 O.co2     1 ACP        -0.8292
      7 O2B        -1.8364    6.7629   -0.4448 O.co2     1 ACP        -0.8292
      8 C3B        -3.2530    5.0301   -1.9785 C.3       1 ACP        -0.6453
      9 PA         -2.5516    4.3890    2.1542 P.3       1 ACP         1.7996
     10 O1A        -3.7879    4.7308    2.9341 O.2       1 ACP        -0.8588
     11 O2A        -1.2616    5.2960    2.5158 O.3       1 ACP        -0.8037
     12 O3A        -2.6991    4.5573    0.5525 O.3       1 ACP        -0.7988
     13 O5'        -2.0397    2.8622    2.3121 O.3       1 ACP        -0.5960
     14 C5'        -0.8811    2.4285    1.6206 C.3       1 ACP         0.1917
     15 C4'        -0.1994    1.3333    2.4288 C.3       1 ACP         0.0908
     16 O4'        -1.1285    0.2356    2.5840 O.3       1 ACP        -0.4111
     17 C3'         1.0324    0.7610    1.7344 C.3       1 ACP         0.0927
     18 O3'         1.9175    0.2377    2.7247 O.3       1 ACP        -0.6127
     19 C2'         0.4468   -0.3802    0.9263 C.3       1 ACP         0.1095
     20 O2'         1.3993   -1.3703    0.5961 O.3       1 ACP        -0.5953
     21 C1'        -0.6159   -0.9100    1.8769 C.3       1 ACP         0.4273
     22 N9         -1.7127   -1.6108    1.2130 N.pl3     1 ACP        -0.6934
     23 C8         -2.8641   -1.0399    0.7392 C.ar      1 ACP         0.5422
     24 N7         -3.6659   -1.9257    0.1858 N.2       1 ACP        -0.5596
     25 C5         -3.0053   -3.1223    0.3069 C.ar      1 ACP        -0.2259
     26 C6         -3.3321   -4.4178   -0.0813 C.ar      1 ACP         0.7526
     27 N6         -4.5476   -4.6866   -0.7335 N.pl3     1 ACP        -0.9660
     28 N1         -2.4608   -5.4225    0.1773 N.ar      1 ACP        -0.8027
     29 C2         -1.3053   -5.1020    0.8081 C.ar      1 ACP         0.6758
     30 N3         -0.8788   -3.8921    1.2315 N.ar      1 ACP        -0.7221
     31 C4         -1.7870   -2.9477    0.9438 C.ar      1 ACP         0.5858
     32 HOG2       -1.2890    6.2375   -3.7227 H         1 ACP         0.4705
     33 HOG3       -1.9439    3.4285   -4.9480 H         1 ACP         0.4705
     34 H3B1       -3.6662    5.7845   -2.6575 H         1 ACP         0.1189
     35 H3B2       -4.0303    4.2711   -1.8342 H         1 ACP         0.1189
     36 HOA2       -0.9203    5.2897    3.4355 H         1 ACP         0.4679
     37 H5'1       -1.1760    2.0499    0.6365 H         1 ACP         0.0587
     38 H5'2       -0.2073    3.2811    1.4873 H         1 ACP         0.0587
     39 H4'         0.0402    1.7079    3.4342 H         1 ACP         0.0938
     40 H3'         1.5907    1.4859    1.1353 H         1 ACP         0.0597
     41 HO3'        2.1521    0.9800    3.3017 H         1 ACP         0.4554
     42 H2'        -0.0017    0.0018    0.0005 H         1 ACP         0.0710
     43 HO2'        0.9369   -2.0558    0.0825 H         1 ACP         0.4360
     44 H1'        -0.1998   -1.6319    2.6178 H         1 ACP         0.1247
     45 H8         -3.0609    0.0200    0.8250 H         1 ACP         0.0875
     46 HN61       -5.2046   -3.9433   -0.8775 H         1 ACP         0.4433
     47 HN62       -4.7849   -5.6332   -0.9625 H         1 ACP         0.4433
     48 H2         -0.6318   -5.9307    0.9993 H         1 ACP         0.0459
@<TRIPOS>BOND
     1    1    2 2
     2    1    3 1
     3    1    4 1
     4    1    8 1
     5    3   32 1
     6    4   33 1
     7    5    6 2
     8    5    7 1
     9    5    8 1
    10    5   12 1
    11    8   34 1
    12    8   35 1
    13    9   10 2
    14    9   11 1
    15    9   12 1
    16    9   13 1
    17   11   36 1
    18   13   14 1
    19   14   15 1
    20   14   37 1
    21   14   38 1
    22   15   16 1
    23   15   17 1
    24   15   39 1
    25   16   21 1
    26   17   18 1
    27   17   19 1
    28   17   40 1
    29   18   41 1
    30   19   20 1
    31   19   21 1
    32   19   42 1
    33   20   43 1
    34   21   22 1
    35   21   44 1
    36   22   23 ar
    37   22   31 ar
    38   23   24 ar
    39   23   45 1
    40   24   25 ar
    41   25   26 ar
    42   25   31 ar
    43   26   27 1
    44   26   28 ar
    45   27   46 1
    46   27   47 1
    47   28   29 ar
    48   29   30 ar
    49   29   48 1
    50   30   31 ar
@<TRIPOS>SUBSTRUCTURE
     1 ACP         1 GROUP 0 A     ****
@<TRIPOS>MOLECULE
[[5-(6-aminopurin-9-yl)-3,4-dihydroxy-tetrahydrofuran-2-yl]methoxy-hydroxy-phosphoryl]oxy-(phosphonomethyl)phosphinate
   48    50     1     0     0
SMALL
USER_CHARGES

@<TRIPOS>ATOM
      1 PG         -2.7770    1.8992   -2.8843 P.3       1 ACP         1.6292
      2 O1G        -1.9909    2.8063   -3.7825 O.2       1 ACP        -0.8674
      3 O2G        -3.3834    0.5778   -3.5886 O.3       1 ACP        -0.7977
      4 O3G        -1.9715    1.3163   -1.6110 O.3       1 ACP        -0.7977
      5 PB         -4.1077    4.1548   -1.0338 P.3       1 ACP         1.4910
      6 O1B        -5.5127    4.5073   -0.6032 O.co2     1 ACP        -0.8292
      7 O2B        -3.2022    5.1499   -1.7217 O.co2     1 ACP        -0.8292
      8 C3B        -4.2278    2.6719   -2.1328 C.3       1 ACP        -0.6453
      9 PA         -2.9682    4.0282    1.6825 P.3       1 ACP         1.7996
     10 O1A        -4.1668    4.4027    2.5051 O.2       1 ACP        -0.8588
     11 O2A        -1.9512    5.2515    1.3883 O.3       1 ACP        -0.8037
     12 O3A        -3.3154    3.4582    0.2093 O.3       1 ACP        -0.7988
     13 O5'        -2.0397    2.8622    2.3121 O.3       1 ACP        -0.5960
     14 C5'        -0.8811    2.4285    1.6206 C.3       1 ACP         0.1917
     15 C4'        -0.1994    1.3333    2.4288 C.3       1 ACP         0.0908
     16 O4'        -1.1285    0.2356    2.5840 O.3       1 ACP        -0.4111
     17 C3'         1.0324    0.7610    1.7344 C.3       1 ACP         0.0927
     18 O3'         1.9175    0.2377    2.7247 O.3       1 ACP        -0.6127
     19 C2'         0.4468   -0.3802    0.9263 C.3       1 ACP         0.1095
     20 O2'         1.3993   -1.3703    0.5961 O.3       1 ACP        -0.5953
     21 C1'        -0.6159   -0.9100    1.8769 C.3       1 ACP         0.4273
     22 N9         -1.7127   -1.6108    1.2130 N.pl3     1 ACP        -0.6934
     23 C8         -2.8641   -1.0399    0.7392 C.ar      1 ACP         0.5422
     24 N7         -3.6659   -1.9257    0.1858 N.2       1 ACP        -0.5596
     25 C5         -3.0053   -3.1223    0.3069 C.ar      1 ACP        -0.2259
     26 C6         -3.3321   -4.4178   -0.0813 C.ar      1 ACP         0.7526
     27 N6         -4.5476   -4.6866   -0.7335 N.pl3     1 ACP        -0.9660
     28 N1         -2.4608   -5.4225    0.1773 N.ar      1 ACP        -0.8027
     29 C2         -1.3053   -5.1020    0.8081 C.ar      1 ACP         0.6758
     30 N3         -0.8788   -3.8921    1.2315 N.ar      1 ACP        -0.7221
     31 C4         -1.7870   -2.9477    0.9438 C.ar      1 ACP         0.5858
     32 HOG2       -2.7688   -0.0642   -4.0037 H         1 ACP         0.4705
     33 HOG3       -2.4359    0.7171   -0.9884 H         1 ACP         0.4705
     34 H3B1       -4.8996    2.9566   -2.9505 H         1 ACP         0.1189
     35 H3B2       -4.7456    1.9034   -1.5477 H         1 ACP         0.1189
     36 HOA2       -2.2826    6.0375    0.9040 H         1 ACP         0.4679
     37 H5'1       -1.1760    2.0499    0.6365 H         1 ACP         0.0587
     38 H5'2       -0.2073    3.2811    1.4873 H         1 ACP         0.0587
     39 H4'         0.0402    1.7079    3.4342 H         1 ACP         0.0938
     40 H3'         1.5907    1.4859    1.1353 H         1 ACP         0.0597
     41 HO3'        2.1521    0.9800    3.3017 H         1 ACP         0.4554
     42 H2'        -0.0017    0.0018    0.0005 H         1 ACP         0.0710
     43 HO2'        0.9369   -2.0558    0.0825 H         1 ACP         0.4360
     44 H1'        -0.1998   -1.6319    2.6178 H         1 ACP         0.1247
     45 H8         -3.0609    0.0200    0.8250 H         1 ACP         0.0875
     46 HN61       -5.2046   -3.9433   -0.8775 H         1 ACP         0.4433
     47 HN62       -4.7849   -5.6332   -0.9625 H         1 ACP         0.4433
     48 H2         -0.6318   -5.9307    0.9993 H         1 ACP         0.0459
@<TRIPOS>BOND
     1    1    2 2
     2    1    3 1
     3    1    4 1
     4    1    8 1
     5    3   32 1
     6    4   33 1
     7    5    6 2
     8    5    7 1
     9    5    8 1
    10    5   12 1
    11    8   34 1
    12    8   35 1
    13    9   10 2
    14    9   11 1
    15    9   12 1
    16    9   13 1
    17   11   36 1
    18   13   14 1
    19   14   15 1
    20   14   37 1
    21   14   38 1
    22   15   16 1
    23   15   17 1
    24   15   39 1
    25   16   21 1
    26   17   18 1
    27   17   19 1
    28   17   40 1
    29   18   41 1
    30   19   20 1
    31   19   21 1
    32   19   42 1
    33   20   43 1
    34   21   22 1
    35   21   44 1
    36   22   23 ar
    37   22   31 ar
    38   23   24 ar
    39   23   45 1
    40   24   25 ar
    41   25   26 ar
    42   25   31 ar
    43   26   27 1
    44   26   28 ar
    45   27   46 1
    46   27   47 1
    47   28   29 ar
    48   29   30 ar
    49   29   48 1
    50   30   31 ar
@<TRIPOS>SUBSTRUCTURE
     1 ACP         1 GROUP 0 A     ****
@<TRIPOS>MOLECULE
[[5-(6-aminopurin-9-yl)-3,4-dihydroxy-tetrahydrofuran-2-yl]methoxy-hydroxy-phosphoryl]oxy-(phosphonomethyl)phosphinate
   48    50     1     0     0
SMALL
USER_CHARGES

@<TRIPOS>ATOM
      1 PG         -4.8812    6.8789    1.8639 P.3       1 ACP         1.6292
      2 O1G        -6.3619    6.6992    2.0142 O.2       1 ACP        -0.8674
      3 O2G        -4.2944    6.6077    0.3833 O.3       1 ACP        -0.7977
      4 O3G        -4.3203    8.3484    2.2324 O.3       1 ACP        -0.7977
      5 PB         -2.0405    5.8173    2.9061 P.3       1 ACP         1.4910
      6 O1B        -1.5748    4.7761    3.8974 O.co2     1 ACP        -0.8292
      7 O2B        -1.6156    7.2645    2.9983 O.co2     1 ACP        -0.8292
      8 C3B        -3.8900    5.7877    2.9095 C.3       1 ACP        -0.6453
      9 PA         -0.4421    4.8274    0.6350 P.3       1 ACP         1.7996
     10 O1A         0.5938    5.9089    0.5310 O.2       1 ACP        -0.8588
     11 O2A        -0.9616    4.2610   -0.7886 O.3       1 ACP        -0.8037
     12 O3A        -1.8029    5.2700    1.3888 O.3       1 ACP        -0.7988
     13 O5'         0.0170    3.5129    1.4593 O.3       1 ACP        -0.5960
     14 C5'        -0.8811    2.4285    1.6206 C.3       1 ACP         0.1917
     15 C4'        -0.1994    1.3333    2.4288 C.3       1 ACP         0.0908
     16 O4'        -1.1285    0.2356    2.5840 O.3       1 ACP        -0.4111
     17 C3'         1.0324    0.7610    1.7344 C.3       1 ACP         0.0927
     18 O3'         1.9175    0.2377    2.7247 O.3       1 ACP        -0.6127
     19 C2'         0.4468   -0.3802    0.9263 C.3       1 ACP         0.1095
     20 O2'         1.3993   -1.3703    0.5961 O.3       1 ACP        -0.5953
     21 C1'        -0.6159   -0.9100    1.8769 C.3       1 ACP         0.4273
     22 N9         -1.7127   -1.6108    1.2130 N.pl3     1 ACP        -0.6934
     23 C8         -2.8641   -1.0399    0.7392 C.ar      1 ACP         0.5422
     24 N7         -3.6659   -1.9257    0.1858 N.2       1 ACP        -0.5596
     25 C5         -3.0053   -3.1223    0.3069 C.ar      1 ACP        -0.2259
     26 C6         -3.3321   -4.4178   -0.0813 C.ar      1 ACP         0.7526
     27 N6         -4.5476   -4.6866   -0.7335 N.pl3     1 ACP        -0.9660
     28 N1         -2.4608   -5.4225    0.1773 N.ar      1 ACP        -0.8027
     29 C2         -1.3053   -5.1020    0.8081 C.ar      1 ACP         0.6758
     30 N3         -0.8788   -3.8921    1.2315 N.ar      1 ACP        -0.7221
     31 C4         -1.7870   -2.9477    0.9438 C.ar      1 ACP         0.5858
     32 HOG2       -3.3314    6.7106    0.2274 H         1 ACP         0.4705
     33 HOG3       -4.6512    9.1232    1.7300 H         1 ACP         0.4705
     34 H3B1       -4.1923    5.9746    3.9461 H         1 ACP         0.1189
     35 H3B2       -4.1759    4.7560    2.6750 H         1 ACP         0.1189
     36 HOA2       -0.3137    3.8525   -1.4014 H         1 ACP         0.4679
     37 H5'1       -1.7775    2.7842    2.1389 H         1 ACP         0.0587
     38 H5'2       -1.1659    2.0534    0.6322 H         1 ACP         0.0587
     39 H4'         0.0402    1.7079    3.4342 H         1 ACP         0.0938
     40 H3'         1.5907    1.4859    1.1353 H         1 ACP         0.0597
     41 HO3'        2.6839   -0.1150    2.2479 H         1 ACP         0.4554
     42 H2'        -0.0017    0.0018    0.0005 H         1 ACP         0.0710
     43 HO2'        2.0953   -0.9375    0.0709 H         1 ACP         0.4360
     44 H1'        -0.1998   -1.6319    2.6178 H         1 ACP         0.1247
     45 H8         -3.0609    0.0200    0.8250 H         1 ACP         0.0875
     46 HN61       -5.2046   -3.9433   -0.8775 H         1 ACP         0.4433
     47 HN62       -4.7849   -5.6332   -0.9625 H         1 ACP         0.4433
     48 H2         -0.6318   -5.9307    0.9993 H         1 ACP         0.0459
@<TRIPOS>BOND
     1    1    2 2
     2    1    3 1
     3    1    4 1
     4    1    8 1
     5    3   32 1
     6    4   33 1
     7    5    6 2
     8    5    7 1
     9    5    8 1
    10    5   12 1
    11    8   34 1
    12    8   35 1
    13    9   10 2
    14    9   11 1
    15    9   12 1
    16    9   13 1
    17   11   36 1
    18   13   14 1
    19   14   15 1
    20   14   37 1
    21   14   38 1
    22   15   16 1
    23   15   17 1
    24   15   39 1
    25   16   21 1
    26   17   18 1
    27   17   19 1
    28   17   40 1
    29   18   41 1
    30   19   20 1
    31   19   21 1
    32   19   42 1
    33   20   43 1
    34   21   22 1
    35   21   44 1
    36   22   23 ar
    37   22   31 ar
    38   23   24 ar
    39   23   45 1
    40   24   25 ar
    41   25   26 ar
    42   25   31 ar
    43   26   27 1
    44   26   28 ar
    45   27   46 1
    46   27   47 1
    47   28   29 ar
    48   29   30 ar
    49   29   48 1
    50   30   31 ar
@<TRIPOS>SUBSTRUCTURE
     1 ACP         1 GROUP 0 A     ****
@<TRIPOS>MOLECULE
[[5-(6-aminopurin-9-yl)-3,4-dihydroxy-tetrahydrofuran-2-yl]methoxy-hydroxy-phosphoryl]oxy-(phosphonomethyl)phosphinate
   48    50     1     0     0
SMALL
USER_CHARGES

@<TRIPOS>ATOM
      1 PG         -3.1728    6.4652    4.2196 P.3       1 ACP         1.6292
      2 O1G        -2.1639    5.4002    4.5282 O.2       1 ACP        -0.8674
      3 O2G        -4.4643    6.5017    5.1895 O.3       1 ACP        -0.7977
      4 O3G        -2.6172    7.9814    4.2683 O.3       1 ACP        -0.7977
      5 PB         -2.8791    6.4399    1.0265 P.3       1 ACP         1.4910
      6 O1B        -2.1857    7.7826    1.0290 O.co2     1 ACP        -0.8292
      7 O2B        -3.7568    5.9885   -0.1177 O.co2     1 ACP        -0.8292
      8 C3B        -3.8972    6.3468    2.5681 C.3       1 ACP        -0.6453
      9 PA         -0.4421    4.8274    0.6350 P.3       1 ACP         1.7996
     10 O1A         0.5938    5.9089    0.5310 O.2       1 ACP        -0.8588
     11 O2A        -0.9616    4.2610   -0.7886 O.3       1 ACP        -0.8037
     12 O3A        -1.8029    5.2700    1.3888 O.3       1 ACP        -0.7988
     13 O5'         0.0170    3.5129    1.4593 O.3       1 ACP        -0.5960
     14 C5'        -0.8811    2.4285    1.6206 C.3       1 ACP         0.1917
     15 C4'        -0.1994    1.3333    2.4288 C.3       1 ACP         0.0908
     16 O4'        -1.1285    0.2356    2.5840 O.3       1 ACP        -0.4111
     17 C3'         1.0324    0.7610    1.7344 C.3       1 ACP         0.0927
     18 O3'         1.9175    0.2377    2.7247 O.3       1 ACP        -0.6127
     19 C2'         0.4468   -0.3802    0.9263 C.3       1 ACP         0.1095
     20 O2'         1.3993   -1.3703    0.5961 O.3       1 ACP        -0.5953
     21 C1'        -0.6159   -0.9100    1.8769 C.3       1 ACP         0.4273
     22 N9         -1.7127   -1.6108    1.2130 N.pl3     1 ACP        -0.6934
     23 C8         -1.7712   -2.9546    0.9544 C.ar      1 ACP         0.5422
     24 N7         -2.8883   -3.2948    0.3462 N.2       1 ACP        -0.5596
     25 C5         -3.5834   -2.1202    0.2043 C.ar      1 ACP        -0.2259
     26 C6         -4.8225   -1.8251   -0.3554 C.ar      1 ACP         0.7526
     27 N6         -5.6154   -2.8394   -0.9189 N.pl3     1 ACP        -0.9660
     28 N1         -5.2589   -0.5425   -0.3507 N.ar      1 ACP        -0.8027
     29 C2         -4.4510    0.3913    0.2069 C.ar      1 ACP         0.6758
     30 N3         -3.2368    0.2296    0.7767 N.ar      1 ACP        -0.7221
     31 C4         -2.8684   -1.0596    0.7376 C.ar      1 ACP         0.5858
     32 HOG2       -4.3331    6.6475    6.1506 H         1 ACP         0.4705
     33 HOG3       -3.2333    8.7198    4.0748 H         1 ACP         0.4705
     34 H3B1       -4.4309    5.3910    2.5193 H         1 ACP         0.1189
     35 H3B2       -4.6509    7.1376    2.4805 H         1 ACP         0.1189
     36 HOA2       -0.3137    3.8525   -1.4014 H         1 ACP         0.4679
     37 H5'1       -1.7775    2.7842    2.1389 H         1 ACP         0.0587
     38 H5'2       -1.1659    2.0534    0.6322 H         1 ACP         0.0587
     39 H4'         0.0402    1.7079    3.4342 H         1 ACP         0.0938
     40 H3'         1.5907    1.4859    1.1353 H         1 ACP         0.0597
     41 HO3'        2.6839   -0.1150    2.2479 H         1 ACP         0.4554
     42 H2'        -0.0017    0.0018    0.0005 H         1 ACP         0.0710
     43 HO2'        2.0953   -0.9375    0.0709 H         1 ACP         0.4360
     44 H1'        -0.1998   -1.6319    2.6178 H         1 ACP         0.1247
     45 H8         -0.9745   -3.6312    1.2318 H         1 ACP         0.0875
     46 HN61       -5.2619   -3.7766   -0.9586 H         1 ACP         0.4433
     47 HN62       -6.4834   -2.5990   -1.3590 H         1 ACP         0.4433
     48 H2         -4.8317    1.4071    0.1930 H         1 ACP         0.0459
@<TRIPOS>BOND
     1    1    2 2
     2    1    3 1
     3    1    4 1
     4    1    8 1
     5    3   32 1
     6    4   33 1
     7    5    6 2
     8    5    7 1
     9    5    8 1
    10    5   12 1
    11    8   34 1
    12    8   35 1
    13    9   10 2
    14    9   11 1
    15    9   12 1
    16    9   13 1
    17   11   36 1
    18   13   14 1
    19   14   15 1
    20   14   37 1
    21   14   38 1
    22   15   16 1
    23   15   17 1
    24   15   39 1
    25   16   21 1
    26   17   18 1
    27   17   19 1
    28   17   40 1
    29   18   41 1
    30   19   20 1
    31   19   21 1
    32   19   42 1
    33   20   43 1
    34   21   22 1
    35   21   44 1
    36   22   23 ar
    37   22   31 ar
    38   23   24 ar
    39   23   45 1
    40   24   25 ar
    41   25   26 ar
    42   25   31 ar
    43   26   27 1
    44   26   28 ar
    45   27   46 1
    46   27   47 1
    47   28   29 ar
    48   29   30 ar
    49   29   48 1
    50   30   31 ar
@<TRIPOS>SUBSTRUCTURE
     1 ACP         1 GROUP 0 A     ****
@<TRIPOS>MOLECULE
[[5-(6-aminopurin-9-yl)-3,4-dihydroxy-tetrahydrofuran-2-yl]methoxy-hydroxy-phosphoryl]oxy-(phosphonomethyl)phosphinate
   48    50     1     0     0
SMALL
USER_CHARGES

@<TRIPOS>ATOM
      1 PG         -1.9480    3.7332   -2.5151 P.3       1 ACP         1.6292
      2 O1G        -1.7561    2.2493   -2.4220 O.2       1 ACP        -0.8674
      3 O2G        -0.8181    4.6278   -1.7848 O.3       1 ACP        -0.7977
      4 O3G        -1.9982    4.3330   -4.0142 O.3       1 ACP        -0.7977
      5 PB         -3.9014    4.0850    0.0035 P.3       1 ACP         1.4910
      6 O1B        -3.9281    2.5951    0.2552 O.co2     1 ACP        -0.8292
      7 O2B        -5.0805    4.9764    0.3174 O.co2     1 ACP        -0.8292
      8 C3B        -3.4882    4.3311   -1.7826 C.3       1 ACP        -0.6453
      9 PA         -2.0141    4.7372    2.1728 P.3       1 ACP         1.7996
     10 O1A        -2.9324    5.4191    3.1452 O.2       1 ACP        -0.8588
     11 O2A        -0.5452    5.4055    2.0600 O.3       1 ACP        -0.8037
     12 O3A        -2.5444    4.7218    0.6450 O.3       1 ACP        -0.7988
     13 O5'        -1.7334    3.1724    2.4742 O.3       1 ACP        -0.5960
     14 C5'        -0.8811    2.4285    1.6206 C.3       1 ACP         0.1917
     15 C4'        -0.1994    1.3333    2.4288 C.3       1 ACP         0.0908
     16 O4'        -1.1285    0.2356    2.5840 O.3       1 ACP        -0.4111
     17 C3'         1.0324    0.7610    1.7344 C.3       1 ACP         0.0927
     18 O3'         1.9175    0.2377    2.7247 O.3       1 ACP        -0.6127
     19 C2'         0.4468   -0.3802    0.9263 C.3       1 ACP         0.1095
     20 O2'         1.3993   -1.3703    0.5961 O.3       1 ACP        -0.5953
     21 C1'        -0.6159   -0.9100    1.8769 C.3       1 ACP         0.4273
     22 N9         -1.7127   -1.6108    1.2130 N.pl3     1 ACP        -0.6934
     23 C8         -2.8641   -1.0399    0.7392 C.ar      1 ACP         0.5422
     24 N7         -3.6659   -1.9257    0.1858 N.2       1 ACP        -0.5596
     25 C5         -3.0053   -3.1223    0.3069 C.ar      1 ACP        -0.2259
     26 C6         -3.3321   -4.4178   -0.0813 C.ar      1 ACP         0.7526
     27 N6         -4.5476   -4.6866   -0.7335 N.pl3     1 ACP        -0.9660
     28 N1         -2.4608   -5.4225    0.1773 N.ar      1 ACP        -0.8027
     29 C2         -1.3053   -5.1020    0.8081 C.ar      1 ACP         0.6758
     30 N3         -0.8788   -3.8921    1.2315 N.ar      1 ACP        -0.7221
     31 C4         -1.7870   -2.9477    0.9438 C.ar      1 ACP         0.5858
     32 HOG2       -0.6784    4.5219   -0.8197 H         1 ACP         0.4705
     33 HOG3       -1.2217    4.2111   -4.6012 H         1 ACP         0.4705
     34 H3B1       -3.5268    5.4127   -1.9544 H         1 ACP         0.1189
     35 H3B2       -4.3164    3.8888   -2.3479 H         1 ACP         0.1189
     36 HOA2       -0.4706    6.3413    1.7757 H         1 ACP         0.4679
     37 H5'1       -1.4795    1.9921    0.8142 H         1 ACP         0.0587
     38 H5'2       -0.1362    3.1035    1.1868 H         1 ACP         0.0587
     39 H4'         0.0402    1.7079    3.4342 H         1 ACP         0.0938
     40 H3'         1.5907    1.4859    1.1353 H         1 ACP         0.0597
     41 HO3'        2.1521    0.9800    3.3017 H         1 ACP         0.4554
     42 H2'        -0.0017    0.0018    0.0005 H         1 ACP         0.0710
     43 HO2'        0.9369   -2.0558    0.0825 H         1 ACP         0.4360
     44 H1'        -0.1998   -1.6319    2.6178 H         1 ACP         0.1247
     45 H8         -3.0609    0.0200    0.8250 H         1 ACP         0.0875
     46 HN61       -5.2046   -3.9433   -0.8775 H         1 ACP         0.4433
     47 HN62       -4.7849   -5.6332   -0.9625 H         1 ACP         0.4433
     48 H2         -0.6318   -5.9307    0.9993 H         1 ACP         0.0459
@<TRIPOS>BOND
     1    1    2 2
     2    1    3 1
     3    1    4 1
     4    1    8 1
     5    3   32 1
     6    4   33 1
     7    5    6 2
     8    5    7 1
     9    5    8 1
    10    5   12 1
    11    8   34 1
    12    8   35 1
    13    9   10 2
    14    9   11 1
    15    9   12 1
    16    9   13 1
    17   11   36 1
    18   13   14 1
    19   14   15 1
    20   14   37 1
    21   14   38 1
    22   15   16 1
    23   15   17 1
    24   15   39 1
    25   16   21 1
    26   17   18 1
    27   17   19 1
    28   17   40 1
    29   18   41 1
    30   19   20 1
    31   19   21 1
    32   19   42 1
    33   20   43 1
    34   21   22 1
    35   21   44 1
    36   22   23 ar
    37   22   31 ar
    38   23   24 ar
    39   23   45 1
    40   24   25 ar
    41   25   26 ar
    42   25   31 ar
    43   26   27 1
    44   26   28 ar
    45   27   46 1
    46   27   47 1
    47   28   29 ar
    48   29   30 ar
    49   29   48 1
    50   30   31 ar
@<TRIPOS>SUBSTRUCTURE
     1 ACP         1 GROUP 0 A     ****
@<TRIPOS>MOLECULE
[[5-(6-aminopurin-9-yl)-3,4-dihydroxy-tetrahydrofuran-2-yl]methoxy-hydroxy-phosphoryl]oxy-(phosphonomethyl)phosphinate
   48    50     1     0     0
SMALL
USER_CHARGES

@<TRIPOS>ATOM
      1 PG         -2.9795    6.1986   -2.5326 P.3       1 ACP         1.6292
      2 O1G        -2.3125    6.4964   -3.8417 O.2       1 ACP        -0.8674
      3 O2G        -2.3418    6.9351   -1.2437 O.3       1 ACP        -0.7977
      4 O3G        -4.5475    6.5789   -2.4512 O.3       1 ACP        -0.7977
      5 PB         -3.7140    3.8319   -0.4974 P.3       1 ACP         1.4910
      6 O1B        -3.4983    2.3368   -0.4574 O.co2     1 ACP        -0.8292
      7 O2B        -5.0882    4.4509   -0.3882 O.co2     1 ACP        -0.8292
      8 C3B        -2.9564    4.4526   -2.0665 C.3       1 ACP        -0.6453
      9 PA         -2.5516    4.3890    2.1542 P.3       1 ACP         1.7996
     10 O1A        -3.7879    4.7308    2.9341 O.2       1 ACP        -0.8588
     11 O2A        -1.2616    5.2960    2.5158 O.3       1 ACP        -0.8037
     12 O3A        -2.6991    4.5573    0.5525 O.3       1 ACP        -0.7988
     13 O5'        -2.0397    2.8622    2.3121 O.3       1 ACP        -0.5960
     14 C5'        -0.8811    2.4285    1.6206 C.3       1 ACP         0.1917
     15 C4'        -0.1994    1.3333    2.4288 C.3       1 ACP         0.0908
     16 O4'        -1.1285    0.2356    2.5840 O.3       1 ACP        -0.4111
     17 C3'         1.0324    0.7610    1.7344 C.3       1 ACP         0.0927
     18 O3'         1.9175    0.2377    2.7247 O.3       1 ACP        -0.6127
     19 C2'         0.4468   -0.3802    0.9263 C.3       1 ACP         0.1095
     20 O2'         1.3993   -1.3703    0.5961 O.3       1 ACP        -0.5953
     21 C1'        -0.6159   -0.9100    1.8769 C.3       1 ACP         0.4273
     22 N9         -1.7127   -1.6108    1.2130 N.pl3     1 ACP        -0.6934
     23 C8         -2.8641   -1.0399    0.7392 C.ar      1 ACP         0.5422
     24 N7         -3.6659   -1.9257    0.1858 N.2       1 ACP        -0.5596
     25 C5         -3.0053   -3.1223    0.3069 C.ar      1 ACP        -0.2259
     26 C6         -3.3321   -4.4178   -0.0813 C.ar      1 ACP         0.7526
     27 N6         -4.5476   -4.6866   -0.7335 N.pl3     1 ACP        -0.9660
     28 N1         -2.4608   -5.4225    0.1773 N.ar      1 ACP        -0.8027
     29 C2         -1.3053   -5.1020    0.8081 C.ar      1 ACP         0.6758
     30 N3         -0.8788   -3.8921    1.2315 N.ar      1 ACP        -0.7221
     31 C4         -1.7870   -2.9477    0.9438 C.ar      1 ACP         0.5858
     32 HOG2       -2.7387    6.7765   -0.3608 H         1 ACP         0.4705
     33 HOG3       -4.8180    7.5119   -2.5870 H         1 ACP         0.4705
     34 H3B1       -3.4436    3.8977   -2.8763 H         1 ACP         0.1189
     35 H3B2       -1.9091    4.1304   -2.0444 H         1 ACP         0.1189
     36 HOA2       -0.9203    5.2897    3.4355 H         1 ACP         0.4679
     37 H5'1       -1.1760    2.0499    0.6365 H         1 ACP         0.0587
     38 H5'2       -0.2073    3.2811    1.4873 H         1 ACP         0.0587
     39 H4'         0.0402    1.7079    3.4342 H         1 ACP         0.0938
     40 H3'         1.5907    1.4859    1.1353 H         1 ACP         0.0597
     41 HO3'        2.6839   -0.1150    2.2479 H         1 ACP         0.4554
     42 H2'        -0.0017    0.0018    0.0005 H         1 ACP         0.0710
     43 HO2'        2.0953   -0.9375    0.0709 H         1 ACP         0.4360
     44 H1'        -0.1998   -1.6319    2.6178 H         1 ACP         0.1247
     45 H8         -3.0609    0.0200    0.8250 H         1 ACP         0.0875
     46 HN61       -5.2046   -3.9433   -0.8775 H         1 ACP         0.4433
     47 HN62       -4.7849   -5.6332   -0.9625 H         1 ACP         0.4433
     48 H2         -0.6318   -5.9307    0.9993 H         1 ACP         0.0459
@<TRIPOS>BOND
     1    1    2 2
     2    1    3 1
     3    1    4 1
     4    1    8 1
     5    3   32 1
     6    4   33 1
     7    5    6 2
     8    5    7 1
     9    5    8 1
    10    5   12 1
    11    8   34 1
    12    8   35 1
    13    9   10 2
    14    9   11 1
    15    9   12 1
    16    9   13 1
    17   11   36 1
    18   13   14 1
    19   14   15 1
    20   14   37 1
    21   14   38 1
    22   15   16 1
    23   15   17 1
    24   15   39 1
    25   16   21 1
    26   17   18 1
    27   17   19 1
    28   17   40 1
    29   18   41 1
    30   19   20 1
    31   19   21 1
    32   19   42 1
    33   20   43 1
    34   21   22 1
    35   21   44 1
    36   22   23 ar
    37   22   31 ar
    38   23   24 ar
    39   23   45 1
    40   24   25 ar
    41   25   26 ar
    42   25   31 ar
    43   26   27 1
    44   26   28 ar
    45   27   46 1
    46   27   47 1
    47   28   29 ar
    48   29   30 ar
    49   29   48 1
    50   30   31 ar
@<TRIPOS>SUBSTRUCTURE
     1 ACP         1 GROUP 0 A     ****
@<TRIPOS>MOLECULE
[[5-(6-aminopurin-9-yl)-3,4-dihydroxy-tetrahydrofuran-2-yl]methoxy-hydroxy-phosphoryl]oxy-(phosphonomethyl)phosphinate
   48    50     1     0     0
SMALL
USER_CHARGES

@<TRIPOS>ATOM
      1 PG         -5.0957    4.6918    0.4882 P.3       1 ACP         1.6292
      2 O1G        -5.6746    3.9479   -0.6775 O.2       1 ACP        -0.8674
      3 O2G        -6.1708    5.3979    1.4659 O.3       1 ACP        -0.7977
      4 O3G        -4.1896    3.8092    1.4931 O.3       1 ACP        -0.7977
      5 PB         -2.4537    5.7923   -0.9579 P.3       1 ACP         1.4910
      6 O1B        -1.8060    7.1457   -1.1382 O.co2     1 ACP        -0.8292
      7 O2B        -2.8158    4.9098   -2.1298 O.co2     1 ACP        -0.8292
      8 C3B        -3.9955    6.0508    0.0308 C.3       1 ACP        -0.6453
      9 PA         -0.0715    4.4469    0.1409 P.3       1 ACP         1.7996
     10 O1A         0.9309    5.5629    0.0817 O.2       1 ACP        -0.8588
     11 O2A         0.0046    3.4141   -1.1020 O.3       1 ACP        -0.8037
     12 O3A        -1.6152    4.9291    0.1422 O.3       1 ACP        -0.7988
     13 O5'         0.0170    3.5129    1.4593 O.3       1 ACP        -0.5960
     14 C5'        -0.8811    2.4285    1.6206 C.3       1 ACP         0.1917
     15 C4'        -0.1994    1.3333    2.4288 C.3       1 ACP         0.0908
     16 O4'        -1.1285    0.2356    2.5840 O.3       1 ACP        -0.4111
     17 C3'         1.0324    0.7610    1.7344 C.3       1 ACP         0.0927
     18 O3'         1.9175    0.2377    2.7247 O.3       1 ACP        -0.6127
     19 C2'         0.4468   -0.3802    0.9263 C.3       1 ACP         0.1095
     20 O2'         1.3993   -1.3703    0.5961 O.3       1 ACP        -0.5953
     21 C1'        -0.6159   -0.9100    1.8769 C.3       1 ACP         0.4273
     22 N9         -1.7127   -1.6108    1.2130 N.pl3     1 ACP        -0.6934
     23 C8         -2.8641   -1.0399    0.7392 C.ar      1 ACP         0.5422
     24 N7         -3.6659   -1.9257    0.1858 N.2       1 ACP        -0.5596
     25 C5         -3.0053   -3.1223    0.3069 C.ar      1 ACP        -0.2259
     26 C6         -3.3321   -4.4178   -0.0813 C.ar      1 ACP         0.7526
     27 N6         -4.5476   -4.6866   -0.7335 N.pl3     1 ACP        -0.9660
     28 N1         -2.4608   -5.4225    0.1773 N.ar      1 ACP        -0.8027
     29 C2         -1.3053   -5.1020    0.8081 C.ar      1 ACP         0.6758
     30 N3         -0.8788   -3.8921    1.2315 N.ar      1 ACP        -0.7221
     31 C4         -1.7870   -2.9477    0.9438 C.ar      1 ACP         0.5858
     32 HOG2       -6.8394    4.8409    1.9185 H         1 ACP         0.4705
     33 HOG3       -3.7849    4.2436    2.2739 H         1 ACP         0.4705
     34 H3B1       -4.5961    6.7747   -0.5315 H         1 ACP         0.1189
     35 H3B2       -3.6814    6.5473    0.9559 H         1 ACP         0.1189
     36 HOA2       -0.1362    3.7550   -2.0110 H         1 ACP         0.4679
     37 H5'1       -1.7775    2.7842    2.1389 H         1 ACP         0.0587
     38 H5'2       -1.1659    2.0534    0.6322 H         1 ACP         0.0587
     39 H4'         0.0402    1.7079    3.4342 H         1 ACP         0.0938
     40 H3'         1.5907    1.4859    1.1353 H         1 ACP         0.0597
     41 HO3'        2.1521    0.9800    3.3017 H         1 ACP         0.4554
     42 H2'        -0.0017    0.0018    0.0005 H         1 ACP         0.0710
     43 HO2'        0.9369   -2.0558    0.0825 H         1 ACP         0.4360
     44 H1'        -0.1998   -1.6319    2.6178 H         1 ACP         0.1247
     45 H8         -3.0609    0.0200    0.8250 H         1 ACP         0.0875
     46 HN61       -5.2046   -3.9433   -0.8775 H         1 ACP         0.4433
     47 HN62       -4.7849   -5.6332   -0.9625 H         1 ACP         0.4433
     48 H2         -0.6318   -5.9307    0.9993 H         1 ACP         0.0459
@<TRIPOS>BOND
     1    1    2 2
     2    1    3 1
     3    1    4 1
     4    1    8 1
     5    3   32 1
     6    4   33 1
     7    5    6 2
     8    5    7 1
     9    5    8 1
    10    5   12 1
    11    8   34 1
    12    8   35 1
    13    9   10 2
    14    9   11 1
    15    9   12 1
    16    9   13 1
    17   11   36 1
    18   13   14 1
    19   14   15 1
    20   14   37 1
    21   14   38 1
    22   15   16 1
    23   15   17 1
    24   15   39 1
    25   16   21 1
    26   17   18 1
    27   17   19 1
    28   17   40 1
    29   18   41 1
    30   19   20 1
    31   19   21 1
    32   19   42 1
    33   20   43 1
    34   21   22 1
    35   21   44 1
    36   22   23 ar
    37   22   31 ar
    38   23   24 ar
    39   23   45 1
    40   24   25 ar
    41   25   26 ar
    42   25   31 ar
    43   26   27 1
    44   26   28 ar
    45   27   46 1
    46   27   47 1
    47   28   29 ar
    48   29   30 ar
    49   29   48 1
    50   30   31 ar
@<TRIPOS>SUBSTRUCTURE
     1 ACP         1 GROUP 0 A     ****
@<TRIPOS>MOLECULE
[[5-(6-aminopurin-9-yl)-3,4-dihydroxy-tetrahydrofuran-2-yl]methoxy-hydroxy-phosphoryl]oxy-(phosphonomethyl)phosphinate
   48    50     1     0     0
SMALL
USER_CHARGES

@<TRIPOS>ATOM
      1 PG         -4.9238    1.1009   -1.5725 P.3       1 ACP         1.6292
      2 O1G        -6.3501    1.1851   -1.1189 O.2       1 ACP        -0.8674
      3 O2G        -3.8670    0.6041   -0.4560 O.3       1 ACP        -0.7977
      4 O3G        -4.6507    0.1130   -2.8213 O.3       1 ACP        -0.7977
      5 PB         -4.1077    4.1548   -1.0338 P.3       1 ACP         1.4910
      6 O1B        -5.5127    4.5073   -0.6032 O.co2     1 ACP        -0.8292
      7 O2B        -3.2022    5.1499   -1.7217 O.co2     1 ACP        -0.8292
      8 C3B        -4.2278    2.6719   -2.1328 C.3       1 ACP        -0.6453
      9 PA         -2.9682    4.0282    1.6825 P.3       1 ACP         1.7996
     10 O1A        -4.1668    4.4027    2.5051 O.2       1 ACP        -0.8588
     11 O2A        -1.9512    5.2515    1.3883 O.3       1 ACP        -0.8037
     12 O3A        -3.3154    3.4582    0.2093 O.3       1 ACP        -0.7988
     13 O5'        -2.0397    2.8622    2.3121 O.3       1 ACP        -0.5960
     14 C5'        -0.8811    2.4285    1.6206 C.3       1 ACP         0.1917
     15 C4'        -0.1994    1.3333    2.4288 C.3       1 ACP         0.0908
     16 O4'        -1.1285    0.2356    2.5840 O.3       1 ACP        -0.4111
     17 C3'         1.0324    0.7610    1.7344 C.3       1 ACP         0.0927
     18 O3'         1.9175    0.2377    2.7247 O.3       1 ACP        -0.6127
     19 C2'         0.4468   -0.3802    0.9263 C.3       1 ACP         0.1095
     20 O2'         1.3993   -1.3703    0.5961 O.3       1 ACP        -0.5953
     21 C1'        -0.6159   -0.9100    1.8769 C.3       1 ACP         0.4273
     22 N9         -1.7127   -1.6108    1.2130 N.pl3     1 ACP        -0.6934
     23 C8         -1.6230   -2.3308    0.0513 C.ar      1 ACP         0.5422
     24 N7         -2.7800   -2.8517   -0.3004 N.2       1 ACP        -0.5596
     25 C5         -3.6574   -2.4511    0.6758 C.ar      1 ACP        -0.2259
     26 C6         -5.0170   -2.6775    0.8654 C.ar      1 ACP         0.7526
     27 N6         -5.7504   -3.4510   -0.0504 N.pl3     1 ACP        -0.9660
     28 N1         -5.6292   -2.1415    1.9486 N.ar      1 ACP        -0.8027
     29 C2         -4.8703   -1.4055    2.7961 C.ar      1 ACP         0.6758
     30 N3         -3.5527   -1.1170    2.7199 N.ar      1 ACP        -0.7221
     31 C4         -3.0124   -1.6774    1.6275 C.ar      1 ACP         0.5858
     32 HOG2       -3.7658    1.1261    0.3683 H         1 ACP         0.4705
     33 HOG3       -4.8713   -0.8386   -2.7317 H         1 ACP         0.4705
     34 H3B1       -3.2071    2.4671   -2.4749 H         1 ACP         0.1189
     35 H3B2       -4.8000    2.9923   -3.0109 H         1 ACP         0.1189
     36 HOA2       -1.5318    5.7121    2.1460 H         1 ACP         0.4679
     37 H5'1       -1.1760    2.0499    0.6365 H         1 ACP         0.0587
     38 H5'2       -0.2073    3.2811    1.4873 H         1 ACP         0.0587
     39 H4'         0.0402    1.7079    3.4342 H         1 ACP         0.0938
     40 H3'         1.5907    1.4859    1.1353 H         1 ACP         0.0597
     41 HO3'        2.6839   -0.1150    2.2479 H         1 ACP         0.4554
     42 H2'        -0.0017    0.0018    0.0005 H         1 ACP         0.0710
     43 HO2'        2.0953   -0.9375    0.0709 H         1 ACP         0.4360
     44 H1'        -0.1998   -1.6319    2.6178 H         1 ACP         0.1247
     45 H8         -0.6932   -2.4401   -0.4900 H         1 ACP         0.0875
     46 HN61       -5.2972   -3.8032   -0.8723 H         1 ACP         0.4433
     47 HN62       -6.7381   -3.5629    0.0791 H         1 ACP         0.4433
     48 H2         -5.3929   -0.9917    3.6520 H         1 ACP         0.0459
@<TRIPOS>BOND
     1    1    2 2
     2    1    3 1
     3    1    4 1
     4    1    8 1
     5    3   32 1
     6    4   33 1
     7    5    6 2
     8    5    7 1
     9    5    8 1
    10    5   12 1
    11    8   34 1
    12    8   35 1
    13    9   10 2
    14    9   11 1
    15    9   12 1
    16    9   13 1
    17   11   36 1
    18   13   14 1
    19   14   15 1
    20   14   37 1
    21   14   38 1
    22   15   16 1
    23   15   17 1
    24   15   39 1
    25   16   21 1
    26   17   18 1
    27   17   19 1
    28   17   40 1
    29   18   41 1
    30   19   20 1
    31   19   21 1
    32   19   42 1
    33   20   43 1
    34   21   22 1
    35   21   44 1
    36   22   23 ar
    37   22   31 ar
    38   23   24 ar
    39   23   45 1
    40   24   25 ar
    41   25   26 ar
    42   25   31 ar
    43   26   27 1
    44   26   28 ar
    45   27   46 1
    46   27   47 1
    47   28   29 ar
    48   29   30 ar
    49   29   48 1
    50   30   31 ar
@<TRIPOS>SUBSTRUCTURE
     1 ACP         1 GROUP 0 A     ****
@<TRIPOS>MOLECULE
[[5-(6-aminopurin-9-yl)-3,4-dihydroxy-tetrahydrofuran-2-yl]methoxy-hydroxy-phosphoryl]oxy-(phosphonomethyl)phosphinate
   48    50     1     0     0
SMALL
USER_CHARGES

@<TRIPOS>ATOM
      1 PG         -3.7723    4.2872    5.1355 P.3       1 ACP         1.6292
      2 O1G        -5.1621    4.3047    4.5736 O.2       1 ACP        -0.8674
      3 O2G        -3.6723    4.1132    6.7385 O.3       1 ACP        -0.7977
      4 O3G        -2.8087    3.1226    4.5653 O.3       1 ACP        -0.7977
      5 PB         -2.4515    6.3963    3.1130 P.3       1 ACP         1.4910
      6 O1B        -1.6491    7.6691    3.2529 O.co2     1 ACP        -0.8292
      7 O2B        -3.7406    6.3387    2.3266 O.co2     1 ACP        -0.8292
      8 C3B        -2.8245    5.7937    4.8216 C.3       1 ACP        -0.6453
      9 PA         -0.5525    5.0215    1.3253 P.3       1 ACP         1.7996
     10 O1A         0.4935    6.0854    1.1588 O.2       1 ACP        -0.8588
     11 O2A        -1.6302    4.9500    0.1208 O.3       1 ACP        -0.8037
     12 O3A        -1.4691    5.1810    2.6482 O.3       1 ACP        -0.7988
     13 O5'         0.0170    3.5129    1.4593 O.3       1 ACP        -0.5960
     14 C5'        -0.8811    2.4285    1.6206 C.3       1 ACP         0.1917
     15 C4'        -0.1994    1.3333    2.4288 C.3       1 ACP         0.0908
     16 O4'        -1.1285    0.2356    2.5840 O.3       1 ACP        -0.4111
     17 C3'         1.0324    0.7610    1.7344 C.3       1 ACP         0.0927
     18 O3'         1.9175    0.2377    2.7247 O.3       1 ACP        -0.6127
     19 C2'         0.4468   -0.3802    0.9263 C.3       1 ACP         0.1095
     20 O2'         1.3993   -1.3703    0.5961 O.3       1 ACP        -0.5953
     21 C1'        -0.6159   -0.9100    1.8769 C.3       1 ACP         0.4273
     22 N9         -1.7127   -1.6108    1.2130 N.pl3     1 ACP        -0.6934
     23 C8         -2.8641   -1.0399    0.7392 C.ar      1 ACP         0.5422
     24 N7         -3.6659   -1.9257    0.1858 N.2       1 ACP        -0.5596
     25 C5         -3.0053   -3.1223    0.3069 C.ar      1 ACP        -0.2259
     26 C6         -3.3321   -4.4178   -0.0813 C.ar      1 ACP         0.7526
     27 N6         -4.5476   -4.6866   -0.7335 N.pl3     1 ACP        -0.9660
     28 N1         -2.4608   -5.4225    0.1773 N.ar      1 ACP        -0.8027
     29 C2         -1.3053   -5.1020    0.8081 C.ar      1 ACP         0.6758
     30 N3         -0.8788   -3.8921    1.2315 N.ar      1 ACP        -0.7221
     31 C4         -1.7870   -2.9477    0.9438 C.ar      1 ACP         0.5858
     32 HOG2       -4.0472    3.3073    7.1536 H         1 ACP         0.4705
     33 HOG3       -1.8877    3.0627    4.8975 H         1 ACP         0.4705
     34 H3B1       -3.3508    6.6143    5.3222 H         1 ACP         0.1189
     35 H3B2       -1.8553    5.6845    5.3216 H         1 ACP         0.1189
     36 HOA2       -1.3125    4.7707   -0.7897 H         1 ACP         0.4679
     37 H5'1       -1.7775    2.7842    2.1389 H         1 ACP         0.0587
     38 H5'2       -1.1659    2.0534    0.6322 H         1 ACP         0.0587
     39 H4'         0.0402    1.7079    3.4342 H         1 ACP         0.0938
     40 H3'         1.5907    1.4859    1.1353 H         1 ACP         0.0597
     41 HO3'        2.6839   -0.1150    2.2479 H         1 ACP         0.4554
     42 H2'        -0.0017    0.0018    0.0005 H         1 ACP         0.0710
     43 HO2'        2.0953   -0.9375    0.0709 H         1 ACP         0.4360
     44 H1'        -0.1998   -1.6319    2.6178 H         1 ACP         0.1247
     45 H8         -3.0609    0.0200    0.8250 H         1 ACP         0.0875
     46 HN61       -5.2046   -3.9433   -0.8775 H         1 ACP         0.4433
     47 HN62       -4.7849   -5.6332   -0.9625 H         1 ACP         0.4433
     48 H2         -0.6318   -5.9307    0.9993 H         1 ACP         0.0459
@<TRIPOS>BOND
     1    1    2 2
     2    1    3 1
     3    1    4 1
     4    1    8 1
     5    3   32 1
     6    4   33 1
     7    5    6 2
     8    5    7 1
     9    5    8 1
    10    5   12 1
    11    8   34 1
    12    8   35 1
    13    9   10 2
    14    9   11 1
    15    9   12 1
    16    9   13 1
    17   11   36 1
    18   13   14 1
    19   14   15 1
    20   14   37 1
    21   14   38 1
    22   15   16 1
    23   15   17 1
    24   15   39 1
    25   16   21 1
    26   17   18 1
    27   17   19 1
    28   17   40 1
    29   18   41 1
    30   19   20 1
    31   19   21 1
    32   19   42 1
    33   20   43 1
    34   21   22 1
    35   21   44 1
    36   22   23 ar
    37   22   31 ar
    38   23   24 ar
    39   23   45 1
    40   24   25 ar
    41   25   26 ar
    42   25   31 ar
    43   26   27 1
    44   26   28 ar
    45   27   46 1
    46   27   47 1
    47   28   29 ar
    48   29   30 ar
    49   29   48 1
    50   30   31 ar
@<TRIPOS>SUBSTRUCTURE
     1 ACP         1 GROUP 0 A     ****
@<TRIPOS>MOLECULE
[[5-(6-aminopurin-9-yl)-3,4-dihydroxy-tetrahydrofuran-2-yl]methoxy-hydroxy-phosphoryl]oxy-(phosphonomethyl)phosphinate
   48    50     1     0     0
SMALL
USER_CHARGES

@<TRIPOS>ATOM
      1 PG         -5.0019    3.7910   -1.4557 P.3       1 ACP         1.6292
      2 O1G        -6.2454    4.4044   -0.8856 O.2       1 ACP        -0.8674
      3 O2G        -4.3154    2.6420   -0.5510 O.3       1 ACP        -0.7977
      4 O3G        -5.1756    3.0862   -2.8989 O.3       1 ACP        -0.7977
      5 PB         -2.9014    5.9532   -0.3623 P.3       1 ACP         1.4910
      6 O1B        -4.0033    6.7944    0.2391 O.co2     1 ACP        -0.8292
      7 O2B        -1.6253    6.5600   -0.8977 O.co2     1 ACP        -0.8292
      8 C3B        -3.6539    4.9629   -1.7314 C.3       1 ACP        -0.6453
      9 PA         -2.0141    4.7372    2.1728 P.3       1 ACP         1.7996
     10 O1A        -2.9324    5.4191    3.1452 O.2       1 ACP        -0.8588
     11 O2A        -0.5452    5.4055    2.0600 O.3       1 ACP        -0.8037
     12 O3A        -2.5444    4.7218    0.6450 O.3       1 ACP        -0.7988
     13 O5'        -1.7334    3.1724    2.4742 O.3       1 ACP        -0.5960
     14 C5'        -0.8811    2.4285    1.6206 C.3       1 ACP         0.1917
     15 C4'        -0.1994    1.3333    2.4288 C.3       1 ACP         0.0908
     16 O4'        -1.1285    0.2356    2.5840 O.3       1 ACP        -0.4111
     17 C3'         1.0324    0.7610    1.7344 C.3       1 ACP         0.0927
     18 O3'         1.9175    0.2377    2.7247 O.3       1 ACP        -0.6127
     19 C2'         0.4468   -0.3802    0.9263 C.3       1 ACP         0.1095
     20 O2'         1.3993   -1.3703    0.5961 O.3       1 ACP        -0.5953
     21 C1'        -0.6159   -0.9100    1.8769 C.3       1 ACP         0.4273
     22 N9         -1.7127   -1.6108    1.2130 N.pl3     1 ACP        -0.6934
     23 C8         -2.8641   -1.0399    0.7392 C.ar      1 ACP         0.5422
     24 N7         -3.6659   -1.9257    0.1858 N.2       1 ACP        -0.5596
     25 C5         -3.0053   -3.1223    0.3069 C.ar      1 ACP        -0.2259
     26 C6         -3.3321   -4.4178   -0.0813 C.ar      1 ACP         0.7526
     27 N6         -4.5476   -4.6866   -0.7335 N.pl3     1 ACP        -0.9660
     28 N1         -2.4608   -5.4225    0.1773 N.ar      1 ACP        -0.8027
     29 C2         -1.3053   -5.1020    0.8081 C.ar      1 ACP         0.6758
     30 N3         -0.8788   -3.8921    1.2315 N.ar      1 ACP        -0.7221
     31 C4         -1.7870   -2.9477    0.9438 C.ar      1 ACP         0.5858
     32 HOG2       -4.0094    2.8682    0.3530 H         1 ACP         0.4705
     33 HOG3       -5.8068    2.3409   -2.9911 H         1 ACP         0.4705
     34 H3B1       -2.8293    4.4025   -2.1863 H         1 ACP         0.1189
     35 H3B2       -3.9953    5.6896   -2.4774 H         1 ACP         0.1189
     36 HOA2       -0.4706    6.3413    1.7757 H         1 ACP         0.4679
     37 H5'1       -1.4795    1.9921    0.8142 H         1 ACP         0.0587
     38 H5'2       -0.1362    3.1035    1.1868 H         1 ACP         0.0587
     39 H4'         0.0402    1.7079    3.4342 H         1 ACP         0.0938
     40 H3'         1.5907    1.4859    1.1353 H         1 ACP         0.0597
     41 HO3'        2.6839   -0.1150    2.2479 H         1 ACP         0.4554
     42 H2'        -0.0017    0.0018    0.0005 H         1 ACP         0.0710
     43 HO2'        2.0953   -0.9375    0.0709 H         1 ACP         0.4360
     44 H1'        -0.1998   -1.6319    2.6178 H         1 ACP         0.1247
     45 H8         -3.0609    0.0200    0.8250 H         1 ACP         0.0875
     46 HN61       -5.2046   -3.9433   -0.8775 H         1 ACP         0.4433
     47 HN62       -4.7849   -5.6332   -0.9625 H         1 ACP         0.4433
     48 H2         -0.6318   -5.9307    0.9993 H         1 ACP         0.0459
@<TRIPOS>BOND
     1    1    2 2
     2    1    3 1
     3    1    4 1
     4    1    8 1
     5    3   32 1
     6    4   33 1
     7    5    6 2
     8    5    7 1
     9    5    8 1
    10    5   12 1
    11    8   34 1
    12    8   35 1
    13    9   10 2
    14    9   11 1
    15    9   12 1
    16    9   13 1
    17   11   36 1
    18   13   14 1
    19   14   15 1
    20   14   37 1
    21   14   38 1
    22   15   16 1
    23   15   17 1
    24   15   39 1
    25   16   21 1
    26   17   18 1
    27   17   19 1
    28   17   40 1
    29   18   41 1
    30   19   20 1
    31   19   21 1
    32   19   42 1
    33   20   43 1
    34   21   22 1
    35   21   44 1
    36   22   23 ar
    37   22   31 ar
    38   23   24 ar
    39   23   45 1
    40   24   25 ar
    41   25   26 ar
    42   25   31 ar
    43   26   27 1
    44   26   28 ar
    45   27   46 1
    46   27   47 1
    47   28   29 ar
    48   29   30 ar
    49   29   48 1
    50   30   31 ar
@<TRIPOS>SUBSTRUCTURE
     1 ACP         1 GROUP 0 A     ****
@<TRIPOS>MOLECULE
[[5-(6-aminopurin-9-yl)-3,4-dihydroxy-tetrahydrofuran-2-yl]methoxy-hydroxy-phosphoryl]oxy-(phosphonomethyl)phosphinate
   48    50     1     0     0
SMALL
USER_CHARGES

@<TRIPOS>ATOM
      1 PG         -4.8812    6.8789    1.8639 P.3       1 ACP         1.6292
      2 O1G        -4.6596    8.3404    2.1132 O.2       1 ACP        -0.8674
      3 O2G        -6.3898    6.3532    2.1043 O.3       1 ACP        -0.7977
      4 O3G        -4.5342    6.3700    0.3705 O.3       1 ACP        -0.7977
      5 PB         -2.0405    5.8173    2.9061 P.3       1 ACP         1.4910
      6 O1B        -1.5748    4.7761    3.8974 O.co2     1 ACP        -0.8292
      7 O2B        -1.6156    7.2645    2.9983 O.co2     1 ACP        -0.8292
      8 C3B        -3.8900    5.7877    2.9095 C.3       1 ACP        -0.6453
      9 PA         -0.4421    4.8274    0.6350 P.3       1 ACP         1.7996
     10 O1A         0.5938    5.9089    0.5310 O.2       1 ACP        -0.8588
     11 O2A        -0.9616    4.2610   -0.7886 O.3       1 ACP        -0.8037
     12 O3A        -1.8029    5.2700    1.3888 O.3       1 ACP        -0.7988
     13 O5'         0.0170    3.5129    1.4593 O.3       1 ACP        -0.5960
     14 C5'        -0.8811    2.4285    1.6206 C.3       1 ACP         0.1917
     15 C4'        -0.1994    1.3333    2.4288 C.3       1 ACP         0.0908
     16 O4'        -1.1285    0.2356    2.5840 O.3       1 ACP        -0.4111
     17 C3'         1.0324    0.7610    1.7344 C.3       1 ACP         0.0927
     18 O3'         1.9175    0.2377    2.7247 O.3       1 ACP        -0.6127
     19 C2'         0.4468   -0.3802    0.9263 C.3       1 ACP         0.1095
     20 O2'         1.3993   -1.3703    0.5961 O.3       1 ACP        -0.5953
     21 C1'        -0.6159   -0.9100    1.8769 C.3       1 ACP         0.4273
     22 N9         -1.7127   -1.6108    1.2130 N.pl3     1 ACP        -0.6934
     23 C8         -1.7712   -2.9546    0.9544 C.ar      1 ACP         0.5422
     24 N7         -2.8883   -3.2948    0.3462 N.2       1 ACP        -0.5596
     25 C5         -3.5834   -2.1202    0.2043 C.ar      1 ACP        -0.2259
     26 C6         -4.8225   -1.8251   -0.3554 C.ar      1 ACP         0.7526
     27 N6         -5.6154   -2.8394   -0.9189 N.pl3     1 ACP        -0.9660
     28 N1         -5.2589   -0.5425   -0.3507 N.ar      1 ACP        -0.8027
     29 C2         -4.4510    0.3913    0.2069 C.ar      1 ACP         0.6758
     30 N3         -3.2368    0.2296    0.7767 N.ar      1 ACP        -0.7221
     31 C4         -2.8684   -1.0596    0.7376 C.ar      1 ACP         0.5858
     32 HOG2       -7.1185    6.7413    1.5746 H         1 ACP         0.4705
     33 HOG3       -4.6600    5.4225    0.1499 H         1 ACP         0.4705
     34 H3B1       -4.1923    5.9746    3.9461 H         1 ACP         0.1189
     35 H3B2       -4.1759    4.7560    2.6750 H         1 ACP         0.1189
     36 HOA2       -0.3137    3.8525   -1.4014 H         1 ACP         0.4679
     37 H5'1       -1.7775    2.7842    2.1389 H         1 ACP         0.0587
     38 H5'2       -1.1659    2.0534    0.6322 H         1 ACP         0.0587
     39 H4'         0.0402    1.7079    3.4342 H         1 ACP         0.0938
     40 H3'         1.5907    1.4859    1.1353 H         1 ACP         0.0597
     41 HO3'        2.6839   -0.1150    2.2479 H         1 ACP         0.4554
     42 H2'        -0.0017    0.0018    0.0005 H         1 ACP         0.0710
     43 HO2'        2.0953   -0.9375    0.0709 H         1 ACP         0.4360
     44 H1'        -0.1998   -1.6319    2.6178 H         1 ACP         0.1247
     45 H8         -0.9745   -3.6312    1.2318 H         1 ACP         0.0875
     46 HN61       -5.2619   -3.7766   -0.9586 H         1 ACP         0.4433
     47 HN62       -6.4834   -2.5990   -1.3590 H         1 ACP         0.4433
     48 H2         -4.8317    1.4071    0.1930 H         1 ACP         0.0459
@<TRIPOS>BOND
     1    1    2 2
     2    1    3 1
     3    1    4 1
     4    1    8 1
     5    3   32 1
     6    4   33 1
     7    5    6 2
     8    5    7 1
     9    5    8 1
    10    5   12 1
    11    8   34 1
    12    8   35 1
    13    9   10 2
    14    9   11 1
    15    9   12 1
    16    9   13 1
    17   11   36 1
    18   13   14 1
    19   14   15 1
    20   14   37 1
    21   14   38 1
    22   15   16 1
    23   15   17 1
    24   15   39 1
    25   16   21 1
    26   17   18 1
    27   17   19 1
    28   17   40 1
    29   18   41 1
    30   19   20 1
    31   19   21 1
    32   19   42 1
    33   20   43 1
    34   21   22 1
    35   21   44 1
    36   22   23 ar
    37   22   31 ar
    38   23   24 ar
    39   23   45 1
    40   24   25 ar
    41   25   26 ar
    42   25   31 ar
    43   26   27 1
    44   26   28 ar
    45   27   46 1
    46   27   47 1
    47   28   29 ar
    48   29   30 ar
    49   29   48 1
    50   30   31 ar
@<TRIPOS>SUBSTRUCTURE
     1 ACP         1 GROUP 0 A     ****
@<TRIPOS>MOLECULE
[[5-(6-aminopurin-9-yl)-3,4-dihydroxy-tetrahydrofuran-2-yl]methoxy-hydroxy-phosphoryl]oxy-(phosphonomethyl)phosphinate
   48    50     1     0     0
SMALL
USER_CHARGES

@<TRIPOS>ATOM
      1 PG         -3.9760    6.7548    1.6952 P.3       1 ACP         1.6292
      2 O1G        -3.4009    8.1371    1.7734 O.2       1 ACP        -0.8674
      3 O2G        -3.2066    5.6312    2.5644 O.3       1 ACP        -0.7977
      4 O3G        -5.5140    6.6161    2.1697 O.3       1 ACP        -0.7977
      5 PB         -2.4537    5.7923   -0.9579 P.3       1 ACP         1.4910
      6 O1B        -1.8060    7.1457   -1.1382 O.co2     1 ACP        -0.8292
      7 O2B        -2.8158    4.9098   -2.1298 O.co2     1 ACP        -0.8292
      8 C3B        -3.9955    6.0508    0.0308 C.3       1 ACP        -0.6453
      9 PA         -0.0715    4.4469    0.1409 P.3       1 ACP         1.7996
     10 O1A         0.9309    5.5629    0.0817 O.2       1 ACP        -0.8588
     11 O2A         0.0046    3.4141   -1.1020 O.3       1 ACP        -0.8037
     12 O3A        -1.6152    4.9291    0.1422 O.3       1 ACP        -0.7988
     13 O5'         0.0170    3.5129    1.4593 O.3       1 ACP        -0.5960
     14 C5'        -0.8811    2.4285    1.6206 C.3       1 ACP         0.1917
     15 C4'        -0.1994    1.3333    2.4288 C.3       1 ACP         0.0908
     16 O4'        -1.1285    0.2356    2.5840 O.3       1 ACP        -0.4111
     17 C3'         1.0324    0.7610    1.7344 C.3       1 ACP         0.0927
     18 O3'         1.9175    0.2377    2.7247 O.3       1 ACP        -0.6127
     19 C2'         0.4468   -0.3802    0.9263 C.3       1 ACP         0.1095
     20 O2'         1.3993   -1.3703    0.5961 O.3       1 ACP        -0.5953
     21 C1'        -0.6159   -0.9100    1.8769 C.3       1 ACP         0.4273
     22 N9         -1.7127   -1.6108    1.2130 N.pl3     1 ACP        -0.6934
     23 C8         -2.8641   -1.0399    0.7392 C.ar      1 ACP         0.5422
     24 N7         -3.6659   -1.9257    0.1858 N.2       1 ACP        -0.5596
     25 C5         -3.0053   -3.1223    0.3069 C.ar      1 ACP        -0.2259
     26 C6         -3.3321   -4.4178   -0.0813 C.ar      1 ACP         0.7526
     27 N6         -4.5476   -4.6866   -0.7335 N.pl3     1 ACP        -0.9660
     28 N1         -2.4608   -5.4225    0.1773 N.ar      1 ACP        -0.8027
     29 C2         -1.3053   -5.1020    0.8081 C.ar      1 ACP         0.6758
     30 N3         -0.8788   -3.8921    1.2315 N.ar      1 ACP        -0.7221
     31 C4         -1.7870   -2.9477    0.9438 C.ar      1 ACP         0.5858
     32 HOG2       -2.2622    5.4470    2.3738 H         1 ACP         0.4705
     33 HOG3       -5.7519    6.8621    3.0891 H         1 ACP         0.4705
     34 H3B1       -4.4750    5.0680    0.1035 H         1 ACP         0.1189
     35 H3B2       -4.6481    6.6790   -0.5861 H         1 ACP         0.1189
     36 HOA2        0.8376    2.9203   -1.2580 H         1 ACP         0.4679
     37 H5'1       -1.7775    2.7842    2.1389 H         1 ACP         0.0587
     38 H5'2       -1.1659    2.0534    0.6322 H         1 ACP         0.0587
     39 H4'         0.0402    1.7079    3.4342 H         1 ACP         0.0938
     40 H3'         1.5907    1.4859    1.1353 H         1 ACP         0.0597
     41 HO3'        2.6839   -0.1150    2.2479 H         1 ACP         0.4554
     42 H2'        -0.0017    0.0018    0.0005 H         1 ACP         0.0710
     43 HO2'        2.0953   -0.9375    0.0709 H         1 ACP         0.4360
     44 H1'        -0.1998   -1.6319    2.6178 H         1 ACP         0.1247
     45 H8         -3.0609    0.0200    0.8250 H         1 ACP         0.0875
     46 HN61       -5.2046   -3.9433   -0.8775 H         1 ACP         0.4433
     47 HN62       -4.7849   -5.6332   -0.9625 H         1 ACP         0.4433
     48 H2         -0.6318   -5.9307    0.9993 H         1 ACP         0.0459
@<TRIPOS>BOND
     1    1    2 2
     2    1    3 1
     3    1    4 1
     4    1    8 1
     5    3   32 1
     6    4   33 1
     7    5    6 2
     8    5    7 1
     9    5    8 1
    10    5   12 1
    11    8   34 1
    12    8   35 1
    13    9   10 2
    14    9   11 1
    15    9   12 1
    16    9   13 1
    17   11   36 1
    18   13   14 1
    19   14   15 1
    20   14   37 1
    21   14   38 1
    22   15   16 1
    23   15   17 1
    24   15   39 1
    25   16   21 1
    26   17   18 1
    27   17   19 1
    28   17   40 1
    29   18   41 1
    30   19   20 1
    31   19   21 1
    32   19   42 1
    33   20   43 1
    34   21   22 1
    35   21   44 1
    36   22   23 ar
    37   22   31 ar
    38   23   24 ar
    39   23   45 1
    40   24   25 ar
    41   25   26 ar
    42   25   31 ar
    43   26   27 1
    44   26   28 ar
    45   27   46 1
    46   27   47 1
    47   28   29 ar
    48   29   30 ar
    49   29   48 1
    50   30   31 ar
@<TRIPOS>SUBSTRUCTURE
     1 ACP         1 GROUP 0 A     ****
@<TRIPOS>MOLECULE
[[5-(6-aminopurin-9-yl)-3,4-dihydroxy-tetrahydrofuran-2-yl]methoxy-hydroxy-phosphoryl]oxy-(phosphonomethyl)phosphinate
   48    50     1     0     0
SMALL
USER_CHARGES

@<TRIPOS>ATOM
      1 PG         -3.9730    3.8943    4.4904 P.3       1 ACP         1.6292
      2 O1G        -4.3225    3.8718    3.0327 O.2       1 ACP        -0.8674
      3 O2G        -5.2033    4.1857    5.4961 O.3       1 ACP        -0.7977
      4 O3G        -3.3229    2.5331    5.0685 O.3       1 ACP        -0.7977
      5 PB         -1.0551    5.1975    4.2251 P.3       1 ACP         1.4910
      6 O1B        -0.3840    3.8922    4.5849 O.co2     1 ACP        -0.8292
      7 O2B        -0.4535    6.5375    4.5801 O.co2     1 ACP        -0.8292
      8 C3B        -2.7586    5.1535    4.9444 C.3       1 ACP        -0.6453
      9 PA         -0.5525    5.0215    1.3253 P.3       1 ACP         1.7996
     10 O1A         0.4935    6.0854    1.1588 O.2       1 ACP        -0.8588
     11 O2A        -1.6302    4.9500    0.1208 O.3       1 ACP        -0.8037
     12 O3A        -1.4691    5.1810    2.6482 O.3       1 ACP        -0.7988
     13 O5'         0.0170    3.5129    1.4593 O.3       1 ACP        -0.5960
     14 C5'        -0.8811    2.4285    1.6206 C.3       1 ACP         0.1917
     15 C4'        -0.1994    1.3333    2.4288 C.3       1 ACP         0.0908
     16 O4'        -1.1285    0.2356    2.5840 O.3       1 ACP        -0.4111
     17 C3'         1.0324    0.7610    1.7344 C.3       1 ACP         0.0927
     18 O3'         1.9175    0.2377    2.7247 O.3       1 ACP        -0.6127
     19 C2'         0.4468   -0.3802    0.9263 C.3       1 ACP         0.1095
     20 O2'         1.3993   -1.3703    0.5961 O.3       1 ACP        -0.5953
     21 C1'        -0.6159   -0.9100    1.8769 C.3       1 ACP         0.4273
     22 N9         -1.7127   -1.6108    1.2130 N.pl3     1 ACP        -0.6934
     23 C8         -1.7712   -2.9546    0.9544 C.ar      1 ACP         0.5422
     24 N7         -2.8883   -3.2948    0.3462 N.2       1 ACP        -0.5596
     25 C5         -3.5834   -2.1202    0.2043 C.ar      1 ACP        -0.2259
     26 C6         -4.8225   -1.8251   -0.3554 C.ar      1 ACP         0.7526
     27 N6         -5.6154   -2.8394   -0.9189 N.pl3     1 ACP        -0.9660
     28 N1         -5.2589   -0.5425   -0.3507 N.ar      1 ACP        -0.8027
     29 C2         -4.4510    0.3913    0.2069 C.ar      1 ACP         0.6758
     30 N3         -3.2368    0.2296    0.7767 N.ar      1 ACP        -0.7221
     31 C4         -2.8684   -1.0596    0.7376 C.ar      1 ACP         0.5858
     32 HOG2       -5.0321    4.2119    6.4616 H         1 ACP         0.4705
     33 HOG3       -3.8388    1.7004    5.0162 H         1 ACP         0.4705
     34 H3B1       -3.2064    6.1278    4.7181 H         1 ACP         0.1189
     35 H3B2       -2.6264    5.1083    6.0314 H         1 ACP         0.1189
     36 HOA2       -1.3125    4.7707   -0.7897 H         1 ACP         0.4679
     37 H5'1       -1.7775    2.7842    2.1389 H         1 ACP         0.0587
     38 H5'2       -1.1659    2.0534    0.6322 H         1 ACP         0.0587
     39 H4'         0.0402    1.7079    3.4342 H         1 ACP         0.0938
     40 H3'         1.5907    1.4859    1.1353 H         1 ACP         0.0597
     41 HO3'        2.1521    0.9800    3.3017 H         1 ACP         0.4554
     42 H2'        -0.0017    0.0018    0.0005 H         1 ACP         0.0710
     43 HO2'        2.0953   -0.9375    0.0709 H         1 ACP         0.4360
     44 H1'        -0.1998   -1.6319    2.6178 H         1 ACP         0.1247
     45 H8         -0.9745   -3.6312    1.2318 H         1 ACP         0.0875
     46 HN61       -5.2619   -3.7766   -0.9586 H         1 ACP         0.4433
     47 HN62       -6.4834   -2.5990   -1.3590 H         1 ACP         0.4433
     48 H2         -4.8317    1.4071    0.1930 H         1 ACP         0.0459
@<TRIPOS>BOND
     1    1    2 2
     2    1    3 1
     3    1    4 1
     4    1    8 1
     5    3   32 1
     6    4   33 1
     7    5    6 2
     8    5    7 1
     9    5    8 1
    10    5   12 1
    11    8   34 1
    12    8   35 1
    13    9   10 2
    14    9   11 1
    15    9   12 1
    16    9   13 1
    17   11   36 1
    18   13   14 1
    19   14   15 1
    20   14   37 1
    21   14   38 1
    22   15   16 1
    23   15   17 1
    24   15   39 1
    25   16   21 1
    26   17   18 1
    27   17   19 1
    28   17   40 1
    29   18   41 1
    30   19   20 1
    31   19   21 1
    32   19   42 1
    33   20   43 1
    34   21   22 1
    35   21   44 1
    36   22   23 ar
    37   22   31 ar
    38   23   24 ar
    39   23   45 1
    40   24   25 ar
    41   25   26 ar
    42   25   31 ar
    43   26   27 1
    44   26   28 ar
    45   27   46 1
    46   27   47 1
    47   28   29 ar
    48   29   30 ar
    49   29   48 1
    50   30   31 ar
@<TRIPOS>SUBSTRUCTURE
     1 ACP         1 GROUP 0 A     ****
@<TRIPOS>MOLECULE
[[5-(6-aminopurin-9-yl)-3,4-dihydroxy-tetrahydrofuran-2-yl]methoxy-hydroxy-phosphoryl]oxy-(phosphonomethyl)phosphinate
   48    50     1     0     0
SMALL
USER_CHARGES

@<TRIPOS>ATOM
      1 PG         -3.9760    6.7548    1.6952 P.3       1 ACP         1.6292
      2 O1G        -3.4009    8.1371    1.7734 O.2       1 ACP        -0.8674
      3 O2G        -3.2066    5.6312    2.5644 O.3       1 ACP        -0.7977
      4 O3G        -5.5140    6.6161    2.1697 O.3       1 ACP        -0.7977
      5 PB         -2.4537    5.7923   -0.9579 P.3       1 ACP         1.4910
      6 O1B        -1.8060    7.1457   -1.1382 O.co2     1 ACP        -0.8292
      7 O2B        -2.8158    4.9098   -2.1298 O.co2     1 ACP        -0.8292
      8 C3B        -3.9955    6.0508    0.0308 C.3       1 ACP        -0.6453
      9 PA         -0.0715    4.4469    0.1409 P.3       1 ACP         1.7996
     10 O1A         0.9309    5.5629    0.0817 O.2       1 ACP        -0.8588
     11 O2A         0.0046    3.4141   -1.1020 O.3       1 ACP        -0.8037
     12 O3A        -1.6152    4.9291    0.1422 O.3       1 ACP        -0.7988
     13 O5'         0.0170    3.5129    1.4593 O.3       1 ACP        -0.5960
     14 C5'        -0.8811    2.4285    1.6206 C.3       1 ACP         0.1917
     15 C4'        -0.1994    1.3333    2.4288 C.3       1 ACP         0.0908
     16 O4'        -1.1285    0.2356    2.5840 O.3       1 ACP        -0.4111
     17 C3'         1.0324    0.7610    1.7344 C.3       1 ACP         0.0927
     18 O3'         1.9175    0.2377    2.7247 O.3       1 ACP        -0.6127
     19 C2'         0.4468   -0.3802    0.9263 C.3       1 ACP         0.1095
     20 O2'         1.3993   -1.3703    0.5961 O.3       1 ACP        -0.5953
     21 C1'        -0.6159   -0.9100    1.8769 C.3       1 ACP         0.4273
     22 N9         -1.7127   -1.6108    1.2130 N.pl3     1 ACP        -0.6934
     23 C8         -1.7712   -2.9546    0.9544 C.ar      1 ACP         0.5422
     24 N7         -2.8883   -3.2948    0.3462 N.2       1 ACP        -0.5596
     25 C5         -3.5834   -2.1202    0.2043 C.ar      1 ACP        -0.2259
     26 C6         -4.8225   -1.8251   -0.3554 C.ar      1 ACP         0.7526
     27 N6         -5.6154   -2.8394   -0.9189 N.pl3     1 ACP        -0.9660
     28 N1         -5.2589   -0.5425   -0.3507 N.ar      1 ACP        -0.8027
     29 C2         -4.4510    0.3913    0.2069 C.ar      1 ACP         0.6758
     30 N3         -3.2368    0.2296    0.7767 N.ar      1 ACP        -0.7221
     31 C4         -2.8684   -1.0596    0.7376 C.ar      1 ACP         0.5858
     32 HOG2       -2.2622    5.4470    2.3738 H         1 ACP         0.4705
     33 HOG3       -5.7519    6.8621    3.0891 H         1 ACP         0.4705
     34 H3B1       -4.4750    5.0680    0.1035 H         1 ACP         0.1189
     35 H3B2       -4.6481    6.6790   -0.5861 H         1 ACP         0.1189
     36 HOA2        0.8376    2.9203   -1.2580 H         1 ACP         0.4679
     37 H5'1       -1.7775    2.7842    2.1389 H         1 ACP         0.0587
     38 H5'2       -1.1659    2.0534    0.6322 H         1 ACP         0.0587
     39 H4'         0.0402    1.7079    3.4342 H         1 ACP         0.0938
     40 H3'         1.5907    1.4859    1.1353 H         1 ACP         0.0597
     41 HO3'        2.6839   -0.1150    2.2479 H         1 ACP         0.4554
     42 H2'        -0.0017    0.0018    0.0005 H         1 ACP         0.0710
     43 HO2'        2.0953   -0.9375    0.0709 H         1 ACP         0.4360
     44 H1'        -0.1998   -1.6319    2.6178 H         1 ACP         0.1247
     45 H8         -0.9745   -3.6312    1.2318 H         1 ACP         0.0875
     46 HN61       -5.2619   -3.7766   -0.9586 H         1 ACP         0.4433
     47 HN62       -6.4834   -2.5990   -1.3590 H         1 ACP         0.4433
     48 H2         -4.8317    1.4071    0.1930 H         1 ACP         0.0459
@<TRIPOS>BOND
     1    1    2 2
     2    1    3 1
     3    1    4 1
     4    1    8 1
     5    3   32 1
     6    4   33 1
     7    5    6 2
     8    5    7 1
     9    5    8 1
    10    5   12 1
    11    8   34 1
    12    8   35 1
    13    9   10 2
    14    9   11 1
    15    9   12 1
    16    9   13 1
    17   11   36 1
    18   13   14 1
    19   14   15 1
    20   14   37 1
    21   14   38 1
    22   15   16 1
    23   15   17 1
    24   15   39 1
    25   16   21 1
    26   17   18 1
    27   17   19 1
    28   17   40 1
    29   18   41 1
    30   19   20 1
    31   19   21 1
    32   19   42 1
    33   20   43 1
    34   21   22 1
    35   21   44 1
    36   22   23 ar
    37   22   31 ar
    38   23   24 ar
    39   23   45 1
    40   24   25 ar
    41   25   26 ar
    42   25   31 ar
    43   26   27 1
    44   26   28 ar
    45   27   46 1
    46   27   47 1
    47   28   29 ar
    48   29   30 ar
    49   29   48 1
    50   30   31 ar
@<TRIPOS>SUBSTRUCTURE
     1 ACP         1 GROUP 0 A     ****
@<TRIPOS>MOLECULE
[[5-(6-aminopurin-9-yl)-3,4-dihydroxy-tetrahydrofuran-2-yl]methoxy-hydroxy-phosphoryl]oxy-(phosphonomethyl)phosphinate
   48    50     1     0     0
SMALL
USER_CHARGES

@<TRIPOS>ATOM
      1 PG         -3.1896    1.9116   -2.1673 P.3       1 ACP         1.6292
      2 O1G        -2.1198    2.9613   -2.1347 O.2       1 ACP        -0.8674
      3 O2G        -3.8096    1.5955   -3.6252 O.3       1 ACP        -0.7977
      4 O3G        -2.7510    0.4576   -1.6167 O.3       1 ACP        -0.7977
      5 PB         -4.5579    2.5876    0.6529 P.3       1 ACP         1.4910
      6 O1B        -4.0168    1.3218    1.2763 O.co2     1 ACP        -0.8292
      7 O2B        -5.8752    3.1950    1.0764 O.co2     1 ACP        -0.8292
      8 C3B        -4.6468    2.3041   -1.1728 C.3       1 ACP        -0.6453
      9 PA         -2.5920    4.4092    1.8816 P.3       1 ACP         1.7996
     10 O1A        -3.4579    5.1208    2.8804 O.2       1 ACP        -0.8588
     11 O2A        -1.5023    5.3543    1.1490 O.3       1 ACP        -0.8037
     12 O3A        -3.3985    3.7339    0.6531 O.3       1 ACP        -0.7988
     13 O5'        -1.7334    3.1724    2.4742 O.3       1 ACP        -0.5960
     14 C5'        -0.8811    2.4285    1.6206 C.3       1 ACP         0.1917
     15 C4'        -0.1994    1.3333    2.4288 C.3       1 ACP         0.0908
     16 O4'        -1.1285    0.2356    2.5840 O.3       1 ACP        -0.4111
     17 C3'         1.0324    0.7610    1.7344 C.3       1 ACP         0.0927
     18 O3'         1.9175    0.2377    2.7247 O.3       1 ACP        -0.6127
     19 C2'         0.4468   -0.3802    0.9263 C.3       1 ACP         0.1095
     20 O2'         1.3993   -1.3703    0.5961 O.3       1 ACP        -0.5953
     21 C1'        -0.6159   -0.9100    1.8769 C.3       1 ACP         0.4273
     22 N9         -1.7127   -1.6108    1.2130 N.pl3     1 ACP        -0.6934
     23 C8         -1.6230   -2.3308    0.0513 C.ar      1 ACP         0.5422
     24 N7         -2.7800   -2.8517   -0.3004 N.2       1 ACP        -0.5596
     25 C5         -3.6574   -2.4511    0.6758 C.ar      1 ACP        -0.2259
     26 C6         -5.0170   -2.6775    0.8654 C.ar      1 ACP         0.7526
     27 N6         -5.7504   -3.4510   -0.0504 N.pl3     1 ACP        -0.9660
     28 N1         -5.6292   -2.1415    1.9486 N.ar      1 ACP        -0.8027
     29 C2         -4.8703   -1.4055    2.7961 C.ar      1 ACP         0.6758
     30 N3         -3.5527   -1.1170    2.7199 N.ar      1 ACP        -0.7221
     31 C4         -3.0124   -1.6774    1.6275 C.ar      1 ACP         0.5858
     32 HOG2       -3.2147    1.2720   -4.3349 H         1 ACP         0.4705
     33 HOG3       -3.4105   -0.2686   -1.6143 H         1 ACP         0.4705
     34 H3B1       -5.0903    3.2118   -1.5973 H         1 ACP         0.1189
     35 H3B2       -5.3732    1.4963   -1.3180 H         1 ACP         0.1189
     36 HOA2       -0.8312    5.8158    1.6955 H         1 ACP         0.4679
     37 H5'1       -1.4795    1.9921    0.8142 H         1 ACP         0.0587
     38 H5'2       -0.1362    3.1035    1.1868 H         1 ACP         0.0587
     39 H4'         0.0402    1.7079    3.4342 H         1 ACP         0.0938
     40 H3'         1.5907    1.4859    1.1353 H         1 ACP         0.0597
     41 HO3'        2.6839   -0.1150    2.2479 H         1 ACP         0.4554
     42 H2'        -0.0017    0.0018    0.0005 H         1 ACP         0.0710
     43 HO2'        2.0953   -0.9375    0.0709 H         1 ACP         0.4360
     44 H1'        -0.1998   -1.6319    2.6178 H         1 ACP         0.1247
     45 H8         -0.6932   -2.4401   -0.4900 H         1 ACP         0.0875
     46 HN61       -5.2972   -3.8032   -0.8723 H         1 ACP         0.4433
     47 HN62       -6.7381   -3.5629    0.0791 H         1 ACP         0.4433
     48 H2         -5.3929   -0.9917    3.6520 H         1 ACP         0.0459
@<TRIPOS>BOND
     1    1    2 2
     2    1    3 1
     3    1    4 1
     4    1    8 1
     5    3   32 1
     6    4   33 1
     7    5    6 2
     8    5    7 1
     9    5    8 1
    10    5   12 1
    11    8   34 1
    12    8   35 1
    13    9   10 2
    14    9   11 1
    15    9   12 1
    16    9   13 1
    17   11   36 1
    18   13   14 1
    19   14   15 1
    20   14   37 1
    21   14   38 1
    22   15   16 1
    23   15   17 1
    24   15   39 1
    25   16   21 1
    26   17   18 1
    27   17   19 1
    28   17   40 1
    29   18   41 1
    30   19   20 1
    31   19   21 1
    32   19   42 1
    33   20   43 1
    34   21   22 1
    35   21   44 1
    36   22   23 ar
    37   22   31 ar
    38   23   24 ar
    39   23   45 1
    40   24   25 ar
    41   25   26 ar
    42   25   31 ar
    43   26   27 1
    44   26   28 ar
    45   27   46 1
    46   27   47 1
    47   28   29 ar
    48   29   30 ar
    49   29   48 1
    50   30   31 ar
@<TRIPOS>SUBSTRUCTURE
     1 ACP         1 GROUP 0 A     ****
@<TRIPOS>MOLECULE
[[5-(6-aminopurin-9-yl)-3,4-dihydroxy-tetrahydrofuran-2-yl]methoxy-hydroxy-phosphoryl]oxy-(phosphonomethyl)phosphinate
   48    50     1     0     0
SMALL
USER_CHARGES

@<TRIPOS>ATOM
      1 PG         -4.6201    6.2184   -1.1220 P.3       1 ACP         1.6292
      2 O1G        -4.5024    7.7019   -1.3032 O.2       1 ACP        -0.8674
      3 O2G        -6.1063    5.6114   -1.3033 O.3       1 ACP        -0.7977
      4 O3G        -3.7192    5.3243   -2.1214 O.3       1 ACP        -0.7977
      5 PB         -2.4245    5.8801    1.1905 P.3       1 ACP         1.4910
      6 O1B        -2.3933    5.2560    2.5664 O.co2     1 ACP        -0.8292
      7 O2B        -2.0583    7.3269    0.9534 O.co2     1 ACP        -0.8292
      8 C3B        -4.1273    5.6277    0.5134 C.3       1 ACP        -0.6453
      9 PA         -0.0715    4.4469    0.1409 P.3       1 ACP         1.7996
     10 O1A         0.9309    5.5629    0.0817 O.2       1 ACP        -0.8588
     11 O2A         0.0046    3.4141   -1.1020 O.3       1 ACP        -0.8037
     12 O3A        -1.6152    4.9291    0.1422 O.3       1 ACP        -0.7988
     13 O5'         0.0170    3.5129    1.4593 O.3       1 ACP        -0.5960
     14 C5'        -0.8811    2.4285    1.6206 C.3       1 ACP         0.1917
     15 C4'        -0.1994    1.3333    2.4288 C.3       1 ACP         0.0908
     16 O4'        -1.1285    0.2356    2.5840 O.3       1 ACP        -0.4111
     17 C3'         1.0324    0.7610    1.7344 C.3       1 ACP         0.0927
     18 O3'         1.9175    0.2377    2.7247 O.3       1 ACP        -0.6127
     19 C2'         0.4468   -0.3802    0.9263 C.3       1 ACP         0.1095
     20 O2'         1.3993   -1.3703    0.5961 O.3       1 ACP        -0.5953
     21 C1'        -0.6159   -0.9100    1.8769 C.3       1 ACP         0.4273
     22 N9         -1.7127   -1.6108    1.2130 N.pl3     1 ACP        -0.6934
     23 C8         -2.8641   -1.0399    0.7392 C.ar      1 ACP         0.5422
     24 N7         -3.6659   -1.9257    0.1858 N.2       1 ACP        -0.5596
     25 C5         -3.0053   -3.1223    0.3069 C.ar      1 ACP        -0.2259
     26 C6         -3.3321   -4.4178   -0.0813 C.ar      1 ACP         0.7526
     27 N6         -4.5476   -4.6866   -0.7335 N.pl3     1 ACP        -0.9660
     28 N1         -2.4608   -5.4225    0.1773 N.ar      1 ACP        -0.8027
     29 C2         -1.3053   -5.1020    0.8081 C.ar      1 ACP         0.6758
     30 N3         -0.8788   -3.8921    1.2315 N.ar      1 ACP        -0.7221
     31 C4         -1.7870   -2.9477    0.9438 C.ar      1 ACP         0.5858
     32 HOG2       -6.5657    5.7275   -2.1622 H         1 ACP         0.4705
     33 HOG3       -3.7561    4.3468   -2.0485 H         1 ACP         0.4705
     34 H3B1       -4.8105    6.0837    1.2388 H         1 ACP         0.1189
     35 H3B2       -4.3066    4.5469    0.5422 H         1 ACP         0.1189
     36 HOA2        0.8376    2.9203   -1.2580 H         1 ACP         0.4679
     37 H5'1       -1.7775    2.7842    2.1389 H         1 ACP         0.0587
     38 H5'2       -1.1659    2.0534    0.6322 H         1 ACP         0.0587
     39 H4'         0.0402    1.7079    3.4342 H         1 ACP         0.0938
     40 H3'         1.5907    1.4859    1.1353 H         1 ACP         0.0597
     41 HO3'        2.6839   -0.1150    2.2479 H         1 ACP         0.4554
     42 H2'        -0.0017    0.0018    0.0005 H         1 ACP         0.0710
     43 HO2'        2.0953   -0.9375    0.0709 H         1 ACP         0.4360
     44 H1'        -0.1998   -1.6319    2.6178 H         1 ACP         0.1247
     45 H8         -3.0609    0.0200    0.8250 H         1 ACP         0.0875
     46 HN61       -5.2046   -3.9433   -0.8775 H         1 ACP         0.4433
     47 HN62       -4.7849   -5.6332   -0.9625 H         1 ACP         0.4433
     48 H2         -0.6318   -5.9307    0.9993 H         1 ACP         0.0459
@<TRIPOS>BOND
     1    1    2 2
     2    1    3 1
     3    1    4 1
     4    1    8 1
     5    3   32 1
     6    4   33 1
     7    5    6 2
     8    5    7 1
     9    5    8 1
    10    5   12 1
    11    8   34 1
    12    8   35 1
    13    9   10 2
    14    9   11 1
    15    9   12 1
    16    9   13 1
    17   11   36 1
    18   13   14 1
    19   14   15 1
    20   14   37 1
    21   14   38 1
    22   15   16 1
    23   15   17 1
    24   15   39 1
    25   16   21 1
    26   17   18 1
    27   17   19 1
    28   17   40 1
    29   18   41 1
    30   19   20 1
    31   19   21 1
    32   19   42 1
    33   20   43 1
    34   21   22 1
    35   21   44 1
    36   22   23 ar
    37   22   31 ar
    38   23   24 ar
    39   23   45 1
    40   24   25 ar
    41   25   26 ar
    42   25   31 ar
    43   26   27 1
    44   26   28 ar
    45   27   46 1
    46   27   47 1
    47   28   29 ar
    48   29   30 ar
    49   29   48 1
    50   30   31 ar
@<TRIPOS>SUBSTRUCTURE
     1 ACP         1 GROUP 0 A     ****
@<TRIPOS>MOLECULE
[[5-(6-aminopurin-9-yl)-3,4-dihydroxy-tetrahydrofuran-2-yl]methoxy-hydroxy-phosphoryl]oxy-(phosphonomethyl)phosphinate
   48    50     1     0     0
SMALL
USER_CHARGES

@<TRIPOS>ATOM
      1 PG          3.5000    4.4826   -4.4344 P.3       1 ACP         1.6292
      2 O1G         2.7313    4.3644   -3.1528 O.2       1 ACP        -0.8674
      3 O2G         2.6960    4.0568   -5.7695 O.3       1 ACP        -0.7977
      4 O3G         4.0519    5.9615   -4.7779 O.3       1 ACP        -0.7977
      5 PB          6.3814    3.6502   -3.2998 P.3       1 ACP         1.4910
      6 O1B         6.8972    5.0647   -3.4293 O.co2     1 ACP        -0.8292
      7 O2B         7.2804    2.4466   -3.4629 O.co2     1 ACP        -0.8292
      8 C3B         4.9902    3.4624   -4.5043 C.3       1 ACP        -0.6453
      9 PA          5.9543    3.7362   -0.3838 P.3       1 ACP         1.7996
     10 O1A         6.4427    5.1210   -0.0715 O.2       1 ACP        -0.8588
     11 O2A         7.0427    2.5687   -0.1198 O.3       1 ACP        -0.8037
     12 O3A         5.5174    3.5089   -1.9243 O.3       1 ACP        -0.7988
     13 O5'         4.6408    3.2691    0.4376 O.3       1 ACP        -0.5960
     14 C5'         4.0922    1.9801    0.2227 C.3       1 ACP         0.1917
     15 C4'         2.5944    2.0310    0.4653 C.3       1 ACP         0.0908
     16 O4'         1.9327    2.5740   -0.6889 O.3       1 ACP        -0.4111
     17 C3'         1.9685    0.6634    0.6767 C.3       1 ACP         0.0927
     18 O3'         2.1425    0.1975    1.9977 O.3       1 ACP        -0.6127
     19 C2'         0.5176    0.9128    0.3099 C.3       1 ACP         0.1095
     20 O2'        -0.2103    1.4454    1.4152 O.3       1 ACP        -0.5953
     21 C1'         0.6219    1.9765   -0.7844 C.3       1 ACP         0.4273
     22 N9          0.4237    1.4496   -2.1357 N.pl3     1 ACP        -0.6934
     23 C8          1.4026    0.9717   -2.9660 C.ar      1 ACP         0.5422
     24 N7          0.9183    0.5619   -4.1197 N.2       1 ACP        -0.5596
     25 C5         -0.4330    0.7845   -4.0331 C.ar      1 ACP        -0.2259
     26 C6         -1.4794    0.5615   -4.9225 C.ar      1 ACP         0.7526
     27 N6         -1.2378    0.0044   -6.1899 N.pl3     1 ACP        -0.9660
     28 N1         -2.7406    0.8885   -4.5512 N.ar      1 ACP        -0.8027
     29 C2         -2.9113    1.4216   -3.3172 C.ar      1 ACP         0.6758
     30 N3         -1.9824    1.6843   -2.3721 N.ar      1 ACP        -0.7221
     31 C4         -0.7613    1.3370   -2.8054 C.ar      1 ACP         0.5858
     32 HOG2        3.1505    4.1143   -6.6368 H         1 ACP         0.4705
     33 HOG3        3.4103    6.6964   -4.8802 H         1 ACP         0.4705
     34 H3B1        4.6678    2.4176   -4.4316 H         1 ACP         0.1189
     35 H3B2        5.4324    3.5911   -5.4988 H         1 ACP         0.1189
     36 HOA2        7.4004    2.4499    0.7858 H         1 ACP         0.4679
     37 H5'1        4.3024    1.6721   -0.8067 H         1 ACP         0.0587
     38 H5'2        4.5673    1.2730    0.9105 H         1 ACP         0.0587
     39 H4'         2.3752    2.7029    1.3156 H         1 ACP         0.0938
     40 H3'         2.4336   -0.1217   -0.0016 H         1 ACP         0.0597
     41 HO3'        1.7160   -0.6716    2.0397 H         1 ACP         0.4554
     42 H2'         0.0316    0.0155   -0.0339 H         1 ACP         0.0710
     43 HO2'       -0.1608    0.7921    2.1351 H         1 ACP         0.4360
     44 H1'        -0.1474    2.7798   -0.6651 H         1 ACP         0.1247
     45 H8          2.4442    0.9470   -2.6763 H         1 ACP         0.0875
     46 HN61       -0.2955   -0.1901   -6.4713 H         1 ACP         0.4433
     47 HN62       -1.9987   -0.1045   -6.8334 H         1 ACP         0.4433
     48 H2         -3.9335    1.6716   -3.0534 H         1 ACP         0.0459
@<TRIPOS>BOND
     1    1    2 2
     2    1    3 1
     3    1    4 1
     4    1    8 1
     5    3   32 1
     6    4   33 1
     7    5    6 2
     8    5    7 1
     9    5    8 1
    10    5   12 1
    11    8   34 1
    12    8   35 1
    13    9   10 2
    14    9   11 1
    15    9   12 1
    16    9   13 1
    17   11   36 1
    18   13   14 1
    19   14   15 1
    20   14   37 1
    21   14   38 1
    22   15   16 1
    23   15   17 1
    24   15   39 1
    25   16   21 1
    26   17   18 1
    27   17   19 1
    28   17   40 1
    29   18   41 1
    30   19   20 1
    31   19   21 1
    32   19   42 1
    33   20   43 1
    34   21   22 1
    35   21   44 1
    36   22   23 ar
    37   22   31 ar
    38   23   24 ar
    39   23   45 1
    40   24   25 ar
    41   25   26 ar
    42   25   31 ar
    43   26   27 1
    44   26   28 ar
    45   27   46 1
    46   27   47 1
    47   28   29 ar
    48   29   30 ar
    49   29   48 1
    50   30   31 ar
@<TRIPOS>SUBSTRUCTURE
     1 ACP         1 GROUP 0 A     ****
@<TRIPOS>MOLECULE
[[5-(6-aminopurin-9-yl)-3,4-dihydroxy-tetrahydrofuran-2-yl]methoxy-hydroxy-phosphoryl]oxy-(phosphonomethyl)phosphinate
   48    50     1     0     0
SMALL
USER_CHARGES

@<TRIPOS>ATOM
      1 PG         -3.7723    4.2872    5.1355 P.3       1 ACP         1.6292
      2 O1G        -5.1621    4.3047    4.5736 O.2       1 ACP        -0.8674
      3 O2G        -3.6723    4.1132    6.7385 O.3       1 ACP        -0.7977
      4 O3G        -2.8087    3.1226    4.5653 O.3       1 ACP        -0.7977
      5 PB         -2.4515    6.3963    3.1130 P.3       1 ACP         1.4910
      6 O1B        -1.6491    7.6691    3.2529 O.co2     1 ACP        -0.8292
      7 O2B        -3.7406    6.3387    2.3266 O.co2     1 ACP        -0.8292
      8 C3B        -2.8245    5.7937    4.8216 C.3       1 ACP        -0.6453
      9 PA         -0.5525    5.0215    1.3253 P.3       1 ACP         1.7996
     10 O1A         0.4935    6.0854    1.1588 O.2       1 ACP        -0.8588
     11 O2A        -1.6302    4.9500    0.1208 O.3       1 ACP        -0.8037
     12 O3A        -1.4691    5.1810    2.6482 O.3       1 ACP        -0.7988
     13 O5'         0.0170    3.5129    1.4593 O.3       1 ACP        -0.5960
     14 C5'        -0.8811    2.4285    1.6206 C.3       1 ACP         0.1917
     15 C4'        -0.1994    1.3333    2.4288 C.3       1 ACP         0.0908
     16 O4'        -1.1285    0.2356    2.5840 O.3       1 ACP        -0.4111
     17 C3'         1.0324    0.7610    1.7344 C.3       1 ACP         0.0927
     18 O3'         1.9175    0.2377    2.7247 O.3       1 ACP        -0.6127
     19 C2'         0.4468   -0.3802    0.9263 C.3       1 ACP         0.1095
     20 O2'         1.3993   -1.3703    0.5961 O.3       1 ACP        -0.5953
     21 C1'        -0.6159   -0.9100    1.8769 C.3       1 ACP         0.4273
     22 N9         -1.7127   -1.6108    1.2130 N.pl3     1 ACP        -0.6934
     23 C8         -1.7712   -2.9546    0.9544 C.ar      1 ACP         0.5422
     24 N7         -2.8883   -3.2948    0.3462 N.2       1 ACP        -0.5596
     25 C5         -3.5834   -2.1202    0.2043 C.ar      1 ACP        -0.2259
     26 C6         -4.8225   -1.8251   -0.3554 C.ar      1 ACP         0.7526
     27 N6         -5.6154   -2.8394   -0.9189 N.pl3     1 ACP        -0.9660
     28 N1         -5.2589   -0.5425   -0.3507 N.ar      1 ACP        -0.8027
     29 C2         -4.4510    0.3913    0.2069 C.ar      1 ACP         0.6758
     30 N3         -3.2368    0.2296    0.7767 N.ar      1 ACP        -0.7221
     31 C4         -2.8684   -1.0596    0.7376 C.ar      1 ACP         0.5858
     32 HOG2       -4.0472    3.3073    7.1536 H         1 ACP         0.4705
     33 HOG3       -1.8877    3.0627    4.8975 H         1 ACP         0.4705
     34 H3B1       -3.3508    6.6143    5.3222 H         1 ACP         0.1189
     35 H3B2       -1.8553    5.6845    5.3216 H         1 ACP         0.1189
     36 HOA2       -1.3125    4.7707   -0.7897 H         1 ACP         0.4679
     37 H5'1       -1.7775    2.7842    2.1389 H         1 ACP         0.0587
     38 H5'2       -1.1659    2.0534    0.6322 H         1 ACP         0.0587
     39 H4'         0.0402    1.7079    3.4342 H         1 ACP         0.0938
     40 H3'         1.5907    1.4859    1.1353 H         1 ACP         0.0597
     41 HO3'        2.6839   -0.1150    2.2479 H         1 ACP         0.4554
     42 H2'        -0.0017    0.0018    0.0005 H         1 ACP         0.0710
     43 HO2'        2.0953   -0.9375    0.0709 H         1 ACP         0.4360
     44 H1'        -0.1998   -1.6319    2.6178 H         1 ACP         0.1247
     45 H8         -0.9745   -3.6312    1.2318 H         1 ACP         0.0875
     46 HN61       -5.2619   -3.7766   -0.9586 H         1 ACP         0.4433
     47 HN62       -6.4834   -2.5990   -1.3590 H         1 ACP         0.4433
     48 H2         -4.8317    1.4071    0.1930 H         1 ACP         0.0459
@<TRIPOS>BOND
     1    1    2 2
     2    1    3 1
     3    1    4 1
     4    1    8 1
     5    3   32 1
     6    4   33 1
     7    5    6 2
     8    5    7 1
     9    5    8 1
    10    5   12 1
    11    8   34 1
    12    8   35 1
    13    9   10 2
    14    9   11 1
    15    9   12 1
    16    9   13 1
    17   11   36 1
    18   13   14 1
    19   14   15 1
    20   14   37 1
    21   14   38 1
    22   15   16 1
    23   15   17 1
    24   15   39 1
    25   16   21 1
    26   17   18 1
    27   17   19 1
    28   17   40 1
    29   18   41 1
    30   19   20 1
    31   19   21 1
    32   19   42 1
    33   20   43 1
    34   21   22 1
    35   21   44 1
    36   22   23 ar
    37   22   31 ar
    38   23   24 ar
    39   23   45 1
    40   24   25 ar
    41   25   26 ar
    42   25   31 ar
    43   26   27 1
    44   26   28 ar
    45   27   46 1
    46   27   47 1
    47   28   29 ar
    48   29   30 ar
    49   29   48 1
    50   30   31 ar
@<TRIPOS>SUBSTRUCTURE
     1 ACP         1 GROUP 0 A     ****
@<TRIPOS>MOLECULE
[[5-(6-aminopurin-9-yl)-3,4-dihydroxy-tetrahydrofuran-2-yl]methoxy-hydroxy-phosphoryl]oxy-(phosphonomethyl)phosphinate
   48    50     1     0     0
SMALL
USER_CHARGES

@<TRIPOS>ATOM
      1 PG         -1.8741    4.2408   -2.8401 P.3       1 ACP         1.6292
      2 O1G        -2.2436    3.6141   -4.1509 O.2       1 ACP        -0.8674
      3 O2G        -1.2730    3.2311   -1.7313 O.3       1 ACP        -0.7977
      4 O3G        -0.7707    5.4179   -2.9211 O.3       1 ACP        -0.7977
      5 PB         -3.0530    5.8724   -0.3439 P.3       1 ACP         1.4910
      6 O1B        -4.4103    6.4045    0.0539 O.co2     1 ACP        -0.8292
      7 O2B        -1.8364    6.7629   -0.4448 O.co2     1 ACP        -0.8292
      8 C3B        -3.2530    5.0301   -1.9785 C.3       1 ACP        -0.6453
      9 PA         -2.5516    4.3890    2.1542 P.3       1 ACP         1.7996
     10 O1A        -3.7879    4.7308    2.9341 O.2       1 ACP        -0.8588
     11 O2A        -1.2616    5.2960    2.5158 O.3       1 ACP        -0.8037
     12 O3A        -2.6991    4.5573    0.5525 O.3       1 ACP        -0.7988
     13 O5'        -2.0397    2.8622    2.3121 O.3       1 ACP        -0.5960
     14 C5'        -0.8811    2.4285    1.6206 C.3       1 ACP         0.1917
     15 C4'        -0.1994    1.3333    2.4288 C.3       1 ACP         0.0908
     16 O4'        -1.1285    0.2356    2.5840 O.3       1 ACP        -0.4111
     17 C3'         1.0324    0.7610    1.7344 C.3       1 ACP         0.0927
     18 O3'         1.9175    0.2377    2.7247 O.3       1 ACP        -0.6127
     19 C2'         0.4468   -0.3802    0.9263 C.3       1 ACP         0.1095
     20 O2'         1.3993   -1.3703    0.5961 O.3       1 ACP        -0.5953
     21 C1'        -0.6159   -0.9100    1.8769 C.3       1 ACP         0.4273
     22 N9         -1.7127   -1.6108    1.2130 N.pl3     1 ACP        -0.6934
     23 C8         -2.0877   -2.9101    1.4304 C.ar      1 ACP         0.5422
     24 N7         -3.1152   -3.2613    0.6857 N.2       1 ACP        -0.5596
     25 C5         -3.4186   -2.1409   -0.0462 C.ar      1 ACP        -0.2259
     26 C6         -4.3953   -1.8809   -1.0023 C.ar      1 ACP         0.7526
     27 N6         -5.3118   -2.8767   -1.3812 N.pl3     1 ACP        -0.9660
     28 N1         -4.4538   -0.6507   -1.5667 N.ar      1 ACP        -0.8027
     29 C2         -3.5442    0.2679   -1.1609 C.ar      1 ACP         0.6758
     30 N3         -2.5561    0.1361   -0.2491 N.ar      1 ACP        -0.7221
     31 C4         -2.5568   -1.1019    0.2674 C.ar      1 ACP         0.5858
     32 HOG2       -1.0141    3.5872   -0.8548 H         1 ACP         0.4705
     33 HOG3        0.1176    5.2127   -3.2833 H         1 ACP         0.4705
     34 H3B1       -3.6662    5.7845   -2.6575 H         1 ACP         0.1189
     35 H3B2       -4.0303    4.2711   -1.8342 H         1 ACP         0.1189
     36 HOA2       -1.3128    6.2668    2.3850 H         1 ACP         0.4679
     37 H5'1       -1.1760    2.0499    0.6365 H         1 ACP         0.0587
     38 H5'2       -0.2073    3.2811    1.4873 H         1 ACP         0.0587
     39 H4'         0.0402    1.7079    3.4342 H         1 ACP         0.0938
     40 H3'         1.5907    1.4859    1.1353 H         1 ACP         0.0597
     41 HO3'        2.1521    0.9800    3.3017 H         1 ACP         0.4554
     42 H2'        -0.0017    0.0018    0.0005 H         1 ACP         0.0710
     43 HO2'        0.9369   -2.0558    0.0825 H         1 ACP         0.4360
     44 H1'        -0.1998   -1.6319    2.6178 H         1 ACP         0.1247
     45 H8         -1.5778   -3.5473    2.1399 H         1 ACP         0.0875
     46 HN61       -5.2294   -3.7965   -0.9914 H         1 ACP         0.4433
     47 HN62       -5.9774   -2.6837   -2.1055 H         1 ACP         0.4433
     48 H2         -3.6201    1.2414   -1.6336 H         1 ACP         0.0459
@<TRIPOS>BOND
     1    1    2 2
     2    1    3 1
     3    1    4 1
     4    1    8 1
     5    3   32 1
     6    4   33 1
     7    5    6 2
     8    5    7 1
     9    5    8 1
    10    5   12 1
    11    8   34 1
    12    8   35 1
    13    9   10 2
    14    9   11 1
    15    9   12 1
    16    9   13 1
    17   11   36 1
    18   13   14 1
    19   14   15 1
    20   14   37 1
    21   14   38 1
    22   15   16 1
    23   15   17 1
    24   15   39 1
    25   16   21 1
    26   17   18 1
    27   17   19 1
    28   17   40 1
    29   18   41 1
    30   19   20 1
    31   19   21 1
    32   19   42 1
    33   20   43 1
    34   21   22 1
    35   21   44 1
    36   22   23 ar
    37   22   31 ar
    38   23   24 ar
    39   23   45 1
    40   24   25 ar
    41   25   26 ar
    42   25   31 ar
    43   26   27 1
    44   26   28 ar
    45   27   46 1
    46   27   47 1
    47   28   29 ar
    48   29   30 ar
    49   29   48 1
    50   30   31 ar
@<TRIPOS>SUBSTRUCTURE
     1 ACP         1 GROUP 0 A     ****
@<TRIPOS>MOLECULE
[[5-(6-aminopurin-9-yl)-3,4-dihydroxy-tetrahydrofuran-2-yl]methoxy-hydroxy-phosphoryl]oxy-(phosphonomethyl)phosphinate
   48    50     1     0     0
SMALL
USER_CHARGES

@<TRIPOS>ATOM
      1 PG         -3.7723    4.2872    5.1355 P.3       1 ACP         1.6292
      2 O1G        -3.1596    3.0432    4.5658 O.2       1 ACP        -0.8674
      3 O2G        -5.2452    4.6535    4.5818 O.3       1 ACP        -0.7977
      4 O3G        -3.9556    4.2973    6.7405 O.3       1 ACP        -0.7977
      5 PB         -2.4515    6.3963    3.1130 P.3       1 ACP         1.4910
      6 O1B        -1.6491    7.6691    3.2529 O.co2     1 ACP        -0.8292
      7 O2B        -3.7406    6.3387    2.3266 O.co2     1 ACP        -0.8292
      8 C3B        -2.8245    5.7937    4.8216 C.3       1 ACP        -0.6453
      9 PA         -0.5525    5.0215    1.3253 P.3       1 ACP         1.7996
     10 O1A         0.4935    6.0854    1.1588 O.2       1 ACP        -0.8588
     11 O2A        -1.6302    4.9500    0.1208 O.3       1 ACP        -0.8037
     12 O3A        -1.4691    5.1810    2.6482 O.3       1 ACP        -0.7988
     13 O5'         0.0170    3.5129    1.4593 O.3       1 ACP        -0.5960
     14 C5'        -0.8811    2.4285    1.6206 C.3       1 ACP         0.1917
     15 C4'        -0.1994    1.3333    2.4288 C.3       1 ACP         0.0908
     16 O4'        -1.1285    0.2356    2.5840 O.3       1 ACP        -0.4111
     17 C3'         1.0324    0.7610    1.7344 C.3       1 ACP         0.0927
     18 O3'         1.9175    0.2377    2.7247 O.3       1 ACP        -0.6127
     19 C2'         0.4468   -0.3802    0.9263 C.3       1 ACP         0.1095
     20 O2'         1.3993   -1.3703    0.5961 O.3       1 ACP        -0.5953
     21 C1'        -0.6159   -0.9100    1.8769 C.3       1 ACP         0.4273
     22 N9         -1.7127   -1.6108    1.2130 N.pl3     1 ACP        -0.6934
     23 C8         -2.8641   -1.0399    0.7392 C.ar      1 ACP         0.5422
     24 N7         -3.6659   -1.9257    0.1858 N.2       1 ACP        -0.5596
     25 C5         -3.0053   -3.1223    0.3069 C.ar      1 ACP        -0.2259
     26 C6         -3.3321   -4.4178   -0.0813 C.ar      1 ACP         0.7526
     27 N6         -4.5476   -4.6866   -0.7335 N.pl3     1 ACP        -0.9660
     28 N1         -2.4608   -5.4225    0.1773 N.ar      1 ACP        -0.8027
     29 C2         -1.3053   -5.1020    0.8081 C.ar      1 ACP         0.6758
     30 N3         -0.8788   -3.8921    1.2315 N.ar      1 ACP        -0.7221
     31 C4         -1.7870   -2.9477    0.9438 C.ar      1 ACP         0.5858
     32 HOG2       -5.6940    5.4573    4.9203 H         1 ACP         0.4705
     33 HOG3       -4.5148    3.6088    7.1594 H         1 ACP         0.4705
     34 H3B1       -3.3508    6.6143    5.3222 H         1 ACP         0.1189
     35 H3B2       -1.8553    5.6845    5.3216 H         1 ACP         0.1189
     36 HOA2       -2.1821    5.7384   -0.0690 H         1 ACP         0.4679
     37 H5'1       -1.7775    2.7842    2.1389 H         1 ACP         0.0587
     38 H5'2       -1.1659    2.0534    0.6322 H         1 ACP         0.0587
     39 H4'         0.0402    1.7079    3.4342 H         1 ACP         0.0938
     40 H3'         1.5907    1.4859    1.1353 H         1 ACP         0.0597
     41 HO3'        2.1521    0.9800    3.3017 H         1 ACP         0.4554
     42 H2'        -0.0017    0.0018    0.0005 H         1 ACP         0.0710
     43 HO2'        0.9369   -2.0558    0.0825 H         1 ACP         0.4360
     44 H1'        -0.1998   -1.6319    2.6178 H         1 ACP         0.1247
     45 H8         -3.0609    0.0200    0.8250 H         1 ACP         0.0875
     46 HN61       -5.2046   -3.9433   -0.8775 H         1 ACP         0.4433
     47 HN62       -4.7849   -5.6332   -0.9625 H         1 ACP         0.4433
     48 H2         -0.6318   -5.9307    0.9993 H         1 ACP         0.0459
@<TRIPOS>BOND
     1    1    2 2
     2    1    3 1
     3    1    4 1
     4    1    8 1
     5    3   32 1
     6    4   33 1
     7    5    6 2
     8    5    7 1
     9    5    8 1
    10    5   12 1
    11    8   34 1
    12    8   35 1
    13    9   10 2
    14    9   11 1
    15    9   12 1
    16    9   13 1
    17   11   36 1
    18   13   14 1
    19   14   15 1
    20   14   37 1
    21   14   38 1
    22   15   16 1
    23   15   17 1
    24   15   39 1
    25   16   21 1
    26   17   18 1
    27   17   19 1
    28   17   40 1
    29   18   41 1
    30   19   20 1
    31   19   21 1
    32   19   42 1
    33   20   43 1
    34   21   22 1
    35   21   44 1
    36   22   23 ar
    37   22   31 ar
    38   23   24 ar
    39   23   45 1
    40   24   25 ar
    41   25   26 ar
    42   25   31 ar
    43   26   27 1
    44   26   28 ar
    45   27   46 1
    46   27   47 1
    47   28   29 ar
    48   29   30 ar
    49   29   48 1
    50   30   31 ar
@<TRIPOS>SUBSTRUCTURE
     1 ACP         1 GROUP 0 A     ****
@<TRIPOS>MOLECULE
[[5-(6-aminopurin-9-yl)-3,4-dihydroxy-tetrahydrofuran-2-yl]methoxy-hydroxy-phosphoryl]oxy-(phosphonomethyl)phosphinate
   48    50     1     0     0
SMALL
USER_CHARGES

@<TRIPOS>ATOM
      1 PG         -4.6201    6.2184   -1.1220 P.3       1 ACP         1.6292
      2 O1G        -6.0425    5.9141   -1.4847 O.2       1 ACP        -0.8674
      3 O2G        -3.5018    5.5820   -2.0989 O.3       1 ACP        -0.7977
      4 O3G        -4.2370    7.7871   -1.0758 O.3       1 ACP        -0.7977
      5 PB         -2.4245    5.8801    1.1905 P.3       1 ACP         1.4910
      6 O1B        -2.3933    5.2560    2.5664 O.co2     1 ACP        -0.8292
      7 O2B        -2.0583    7.3269    0.9534 O.co2     1 ACP        -0.8292
      8 C3B        -4.1273    5.6277    0.5134 C.3       1 ACP        -0.6453
      9 PA         -0.0715    4.4469    0.1409 P.3       1 ACP         1.7996
     10 O1A         0.9309    5.5629    0.0817 O.2       1 ACP        -0.8588
     11 O2A         0.0046    3.4141   -1.1020 O.3       1 ACP        -0.8037
     12 O3A        -1.6152    4.9291    0.1422 O.3       1 ACP        -0.7988
     13 O5'         0.0170    3.5129    1.4593 O.3       1 ACP        -0.5960
     14 C5'        -0.8811    2.4285    1.6206 C.3       1 ACP         0.1917
     15 C4'        -0.1994    1.3333    2.4288 C.3       1 ACP         0.0908
     16 O4'        -1.1285    0.2356    2.5840 O.3       1 ACP        -0.4111
     17 C3'         1.0324    0.7610    1.7344 C.3       1 ACP         0.0927
     18 O3'         1.9175    0.2377    2.7247 O.3       1 ACP        -0.6127
     19 C2'         0.4468   -0.3802    0.9263 C.3       1 ACP         0.1095
     20 O2'         1.3993   -1.3703    0.5961 O.3       1 ACP        -0.5953
     21 C1'        -0.6159   -0.9100    1.8769 C.3       1 ACP         0.4273
     22 N9         -1.7127   -1.6108    1.2130 N.pl3     1 ACP        -0.6934
     23 C8         -1.7712   -2.9546    0.9544 C.ar      1 ACP         0.5422
     24 N7         -2.8883   -3.2948    0.3462 N.2       1 ACP        -0.5596
     25 C5         -3.5834   -2.1202    0.2043 C.ar      1 ACP        -0.2259
     26 C6         -4.8225   -1.8251   -0.3554 C.ar      1 ACP         0.7526
     27 N6         -5.6154   -2.8394   -0.9189 N.pl3     1 ACP        -0.9660
     28 N1         -5.2589   -0.5425   -0.3507 N.ar      1 ACP        -0.8027
     29 C2         -4.4510    0.3913    0.2069 C.ar      1 ACP         0.6758
     30 N3         -3.2368    0.2296    0.7767 N.ar      1 ACP        -0.7221
     31 C4         -2.8684   -1.0596    0.7376 C.ar      1 ACP         0.5858
     32 HOG2       -2.5541    5.7489   -1.9089 H         1 ACP         0.4705
     33 HOG3       -4.3380    8.3253   -1.8897 H         1 ACP         0.4705
     34 H3B1       -4.8105    6.0837    1.2388 H         1 ACP         0.1189
     35 H3B2       -4.3066    4.5469    0.5422 H         1 ACP         0.1189
     36 HOA2        0.8376    2.9203   -1.2580 H         1 ACP         0.4679
     37 H5'1       -1.7775    2.7842    2.1389 H         1 ACP         0.0587
     38 H5'2       -1.1659    2.0534    0.6322 H         1 ACP         0.0587
     39 H4'         0.0402    1.7079    3.4342 H         1 ACP         0.0938
     40 H3'         1.5907    1.4859    1.1353 H         1 ACP         0.0597
     41 HO3'        2.6839   -0.1150    2.2479 H         1 ACP         0.4554
     42 H2'        -0.0017    0.0018    0.0005 H         1 ACP         0.0710
     43 HO2'        0.9369   -2.0558    0.0825 H         1 ACP         0.4360
     44 H1'        -0.1998   -1.6319    2.6178 H         1 ACP         0.1247
     45 H8         -0.9745   -3.6312    1.2318 H         1 ACP         0.0875
     46 HN61       -5.2619   -3.7766   -0.9586 H         1 ACP         0.4433
     47 HN62       -6.4834   -2.5990   -1.3590 H         1 ACP         0.4433
     48 H2         -4.8317    1.4071    0.1930 H         1 ACP         0.0459
@<TRIPOS>BOND
     1    1    2 2
     2    1    3 1
     3    1    4 1
     4    1    8 1
     5    3   32 1
     6    4   33 1
     7    5    6 2
     8    5    7 1
     9    5    8 1
    10    5   12 1
    11    8   34 1
    12    8   35 1
    13    9   10 2
    14    9   11 1
    15    9   12 1
    16    9   13 1
    17   11   36 1
    18   13   14 1
    19   14   15 1
    20   14   37 1
    21   14   38 1
    22   15   16 1
    23   15   17 1
    24   15   39 1
    25   16   21 1
    26   17   18 1
    27   17   19 1
    28   17   40 1
    29   18   41 1
    30   19   20 1
    31   19   21 1
    32   19   42 1
    33   20   43 1
    34   21   22 1
    35   21   44 1
    36   22   23 ar
    37   22   31 ar
    38   23   24 ar
    39   23   45 1
    40   24   25 ar
    41   25   26 ar
    42   25   31 ar
    43   26   27 1
    44   26   28 ar
    45   27   46 1
    46   27   47 1
    47   28   29 ar
    48   29   30 ar
    49   29   48 1
    50   30   31 ar
@<TRIPOS>SUBSTRUCTURE
     1 ACP         1 GROUP 0 A     ****
@<TRIPOS>MOLECULE
[[5-(6-aminopurin-9-yl)-3,4-dihydroxy-tetrahydrofuran-2-yl]methoxy-hydroxy-phosphoryl]oxy-(phosphonomethyl)phosphinate
   48    50     1     0     0
SMALL
USER_CHARGES

@<TRIPOS>ATOM
      1 PG         -5.0851    4.1420   -0.2657 P.3       1 ACP         1.6292
      2 O1G        -4.4467    3.0666    0.5608 O.2       1 ACP        -0.8674
      3 O2G        -5.2212    3.8188   -1.8428 O.3       1 ACP        -0.7977
      4 O3G        -6.5858    4.5521    0.1697 O.3       1 ACP        -0.7977
      5 PB         -2.4565    5.8938   -0.8180 P.3       1 ACP         1.4910
      6 O1B        -2.0704    7.3446   -0.6458 O.co2     1 ACP        -0.8292
      7 O2B        -2.3523    5.1846   -2.1483 O.co2     1 ACP        -0.8292
      8 C3B        -4.2051    5.7205   -0.2401 C.3       1 ACP        -0.6453
      9 PA         -0.1733    4.7801    0.6785 P.3       1 ACP         1.7996
     10 O1A         0.5701    6.0367    1.0281 O.2       1 ACP        -0.8588
     11 O2A         0.3946    4.0088   -0.6253 O.3       1 ACP        -0.8037
     12 O3A        -1.7399    4.9978    0.3404 O.3       1 ACP        -0.7988
     13 O5'        -0.2069    3.6554    1.8412 O.3       1 ACP        -0.5960
     14 C5'        -0.8811    2.4285    1.6206 C.3       1 ACP         0.1917
     15 C4'        -0.1994    1.3333    2.4288 C.3       1 ACP         0.0908
     16 O4'        -1.1285    0.2356    2.5840 O.3       1 ACP        -0.4111
     17 C3'         1.0324    0.7610    1.7344 C.3       1 ACP         0.0927
     18 O3'         1.9175    0.2377    2.7247 O.3       1 ACP        -0.6127
     19 C2'         0.4468   -0.3802    0.9263 C.3       1 ACP         0.1095
     20 O2'         1.3993   -1.3703    0.5961 O.3       1 ACP        -0.5953
     21 C1'        -0.6159   -0.9100    1.8769 C.3       1 ACP         0.4273
     22 N9         -1.7127   -1.6108    1.2130 N.pl3     1 ACP        -0.6934
     23 C8         -2.0877   -2.9101    1.4304 C.ar      1 ACP         0.5422
     24 N7         -3.1152   -3.2613    0.6857 N.2       1 ACP        -0.5596
     25 C5         -3.4186   -2.1409   -0.0462 C.ar      1 ACP        -0.2259
     26 C6         -4.3953   -1.8809   -1.0023 C.ar      1 ACP         0.7526
     27 N6         -5.3118   -2.8767   -1.3812 N.pl3     1 ACP        -0.9660
     28 N1         -4.4538   -0.6507   -1.5667 N.ar      1 ACP        -0.8027
     29 C2         -3.5442    0.2679   -1.1609 C.ar      1 ACP         0.6758
     30 N3         -2.5561    0.1361   -0.2491 N.ar      1 ACP        -0.7221
     31 C4         -2.5568   -1.1019    0.2674 C.ar      1 ACP         0.5858
     32 HOG2       -4.4087    3.6457   -2.3644 H         1 ACP         0.4705
     33 HOG3       -7.2886    3.8679    0.1553 H         1 ACP         0.4705
     34 H3B1       -4.7919    6.4250   -0.8402 H         1 ACP         0.1189
     35 H3B2       -4.2203    6.0905    0.7914 H         1 ACP         0.1189
     36 HOA2        1.3229    3.6919   -0.6217 H         1 ACP         0.4679
     37 H5'1       -1.9259    2.5372    1.9293 H         1 ACP         0.0587
     38 H5'2       -0.8477    2.1923    0.5521 H         1 ACP         0.0587
     39 H4'         0.0402    1.7079    3.4342 H         1 ACP         0.0938
     40 H3'         1.5907    1.4859    1.1353 H         1 ACP         0.0597
     41 HO3'        2.6839   -0.1150    2.2479 H         1 ACP         0.4554
     42 H2'        -0.0017    0.0018    0.0005 H         1 ACP         0.0710
     43 HO2'        0.9369   -2.0558    0.0825 H         1 ACP         0.4360
     44 H1'        -0.1998   -1.6319    2.6178 H         1 ACP         0.1247
     45 H8         -1.5778   -3.5473    2.1399 H         1 ACP         0.0875
     46 HN61       -5.2294   -3.7965   -0.9914 H         1 ACP         0.4433
     47 HN62       -5.9774   -2.6837   -2.1055 H         1 ACP         0.4433
     48 H2         -3.6201    1.2414   -1.6336 H         1 ACP         0.0459
@<TRIPOS>BOND
     1    1    2 2
     2    1    3 1
     3    1    4 1
     4    1    8 1
     5    3   32 1
     6    4   33 1
     7    5    6 2
     8    5    7 1
     9    5    8 1
    10    5   12 1
    11    8   34 1
    12    8   35 1
    13    9   10 2
    14    9   11 1
    15    9   12 1
    16    9   13 1
    17   11   36 1
    18   13   14 1
    19   14   15 1
    20   14   37 1
    21   14   38 1
    22   15   16 1
    23   15   17 1
    24   15   39 1
    25   16   21 1
    26   17   18 1
    27   17   19 1
    28   17   40 1
    29   18   41 1
    30   19   20 1
    31   19   21 1
    32   19   42 1
    33   20   43 1
    34   21   22 1
    35   21   44 1
    36   22   23 ar
    37   22   31 ar
    38   23   24 ar
    39   23   45 1
    40   24   25 ar
    41   25   26 ar
    42   25   31 ar
    43   26   27 1
    44   26   28 ar
    45   27   46 1
    46   27   47 1
    47   28   29 ar
    48   29   30 ar
    49   29   48 1
    50   30   31 ar
@<TRIPOS>SUBSTRUCTURE
     1 ACP         1 GROUP 0 A     ****
@<TRIPOS>MOLECULE
[[5-(6-aminopurin-9-yl)-3,4-dihydroxy-tetrahydrofuran-2-yl]methoxy-hydroxy-phosphoryl]oxy-(phosphonomethyl)phosphinate
   48    50     1     0     0
SMALL
USER_CHARGES

@<TRIPOS>ATOM
      1 PG         -1.2005    4.2509   -2.4440 P.3       1 ACP         1.6292
      2 O1G        -0.2787    4.8983   -1.4547 O.2       1 ACP        -0.8674
      3 O2G        -1.0827    4.7920   -3.9617 O.3       1 ACP        -0.7977
      4 O3G        -1.0400    2.6507   -2.5968 O.3       1 ACP        -0.7977
      5 PB         -3.7140    3.8319   -0.4974 P.3       1 ACP         1.4910
      6 O1B        -3.4983    2.3368   -0.4574 O.co2     1 ACP        -0.8292
      7 O2B        -5.0882    4.4509   -0.3882 O.co2     1 ACP        -0.8292
      8 C3B        -2.9564    4.4526   -2.0665 C.3       1 ACP        -0.6453
      9 PA         -2.5516    4.3890    2.1542 P.3       1 ACP         1.7996
     10 O1A        -3.7879    4.7308    2.9341 O.2       1 ACP        -0.8588
     11 O2A        -1.2616    5.2960    2.5158 O.3       1 ACP        -0.8037
     12 O3A        -2.6991    4.5573    0.5525 O.3       1 ACP        -0.7988
     13 O5'        -2.0397    2.8622    2.3121 O.3       1 ACP        -0.5960
     14 C5'        -0.8811    2.4285    1.6206 C.3       1 ACP         0.1917
     15 C4'        -0.1994    1.3333    2.4288 C.3       1 ACP         0.0908
     16 O4'        -1.1285    0.2356    2.5840 O.3       1 ACP        -0.4111
     17 C3'         1.0324    0.7610    1.7344 C.3       1 ACP         0.0927
     18 O3'         1.9175    0.2377    2.7247 O.3       1 ACP        -0.6127
     19 C2'         0.4468   -0.3802    0.9263 C.3       1 ACP         0.1095
     20 O2'         1.3993   -1.3703    0.5961 O.3       1 ACP        -0.5953
     21 C1'        -0.6159   -0.9100    1.8769 C.3       1 ACP         0.4273
     22 N9         -1.7127   -1.6108    1.2130 N.pl3     1 ACP        -0.6934
     23 C8         -1.6011   -2.7426    0.4497 C.ar      1 ACP         0.5422
     24 N7         -2.7657   -3.1449   -0.0147 N.2       1 ACP        -0.5596
     25 C5         -3.6708   -2.2337    0.4686 C.ar      1 ACP        -0.2259
     26 C6         -5.0501   -2.1167    0.3282 C.ar      1 ACP         0.7526
     27 N6         -5.7760   -3.0497   -0.4318 N.pl3     1 ACP        -0.9660
     28 N1         -5.6892   -1.0882    0.9359 N.ar      1 ACP        -0.8027
     29 C2         -4.9364   -0.2212    1.6553 C.ar      1 ACP         0.6758
     30 N3         -3.6016   -0.2290    1.8634 N.ar      1 ACP        -0.7221
     31 C4         -3.0352   -1.2703    1.2354 C.ar      1 ACP         0.5858
     32 HOG2       -1.6624    4.4036   -4.6512 H         1 ACP         0.4705
     33 HOG3       -0.1763    2.2848   -2.8840 H         1 ACP         0.4705
     34 H3B1       -3.1707    5.5267   -2.1002 H         1 ACP         0.1189
     35 H3B2       -3.5248    3.9884   -2.8806 H         1 ACP         0.1189
     36 HOA2       -0.9203    5.2897    3.4355 H         1 ACP         0.4679
     37 H5'1       -1.1760    2.0499    0.6365 H         1 ACP         0.0587
     38 H5'2       -0.2073    3.2811    1.4873 H         1 ACP         0.0587
     39 H4'         0.0402    1.7079    3.4342 H         1 ACP         0.0938
     40 H3'         1.5907    1.4859    1.1353 H         1 ACP         0.0597
     41 HO3'        2.6839   -0.1150    2.2479 H         1 ACP         0.4554
     42 H2'        -0.0017    0.0018    0.0005 H         1 ACP         0.0710
     43 HO2'        2.0953   -0.9375    0.0709 H         1 ACP         0.4360
     44 H1'        -0.1998   -1.6319    2.6178 H         1 ACP         0.1247
     45 H8         -0.6507   -3.2259    0.2692 H         1 ACP         0.0875
     46 HN61       -5.2868   -3.7791   -0.9150 H         1 ACP         0.4433
     47 HN62       -6.7619   -2.9208   -0.5594 H         1 ACP         0.4433
     48 H2         -5.4806    0.5898    2.1277 H         1 ACP         0.0459
@<TRIPOS>BOND
     1    1    2 2
     2    1    3 1
     3    1    4 1
     4    1    8 1
     5    3   32 1
     6    4   33 1
     7    5    6 2
     8    5    7 1
     9    5    8 1
    10    5   12 1
    11    8   34 1
    12    8   35 1
    13    9   10 2
    14    9   11 1
    15    9   12 1
    16    9   13 1
    17   11   36 1
    18   13   14 1
    19   14   15 1
    20   14   37 1
    21   14   38 1
    22   15   16 1
    23   15   17 1
    24   15   39 1
    25   16   21 1
    26   17   18 1
    27   17   19 1
    28   17   40 1
    29   18   41 1
    30   19   20 1
    31   19   21 1
    32   19   42 1
    33   20   43 1
    34   21   22 1
    35   21   44 1
    36   22   23 ar
    37   22   31 ar
    38   23   24 ar
    39   23   45 1
    40   24   25 ar
    41   25   26 ar
    42   25   31 ar
    43   26   27 1
    44   26   28 ar
    45   27   46 1
    46   27   47 1
    47   28   29 ar
    48   29   30 ar
    49   29   48 1
    50   30   31 ar
@<TRIPOS>SUBSTRUCTURE
     1 ACP         1 GROUP 0 A     ****
@<TRIPOS>MOLECULE
[[5-(6-aminopurin-9-yl)-3,4-dihydroxy-tetrahydrofuran-2-yl]methoxy-hydroxy-phosphoryl]oxy-(phosphonomethyl)phosphinate
   48    50     1     0     0
SMALL
USER_CHARGES

@<TRIPOS>ATOM
      1 PG          6.2364   -0.6002   -2.7249 P.3       1 ACP         1.6292
      2 O1G         6.7284   -0.5938   -1.3089 O.2       1 ACP        -0.8674
      3 O2G         6.8788   -1.7345   -3.6793 O.3       1 ACP        -0.7977
      4 O3G         4.6445   -0.8083   -2.9048 O.3       1 ACP        -0.7977
      5 PB          5.8821    2.5666   -3.0839 P.3       1 ACP         1.4910
      6 O1B         4.3755    2.4501   -3.0751 O.co2     1 ACP        -0.8292
      7 O2B         6.6032    3.6336   -3.8744 O.co2     1 ACP        -0.8292
      8 C3B         6.5543    0.9319   -3.6294 C.3       1 ACP        -0.6453
      9 PA          6.1389    3.5429   -0.3138 P.3       1 ACP         1.7996
     10 O1A         6.5226    4.9737   -0.5571 O.2       1 ACP        -0.8588
     11 O2A         6.9057    2.8480    0.9299 O.3       1 ACP        -0.8037
     12 O3A         6.4393    2.5464   -1.5517 O.3       1 ACP        -0.7988
     13 O5'         4.5673    3.2930   -0.0211 O.3       1 ACP        -0.5960
     14 C5'         4.0922    1.9801    0.2227 C.3       1 ACP         0.1917
     15 C4'         2.5944    2.0310    0.4653 C.3       1 ACP         0.0908
     16 O4'         1.9327    2.5740   -0.6889 O.3       1 ACP        -0.4111
     17 C3'         1.9685    0.6634    0.6767 C.3       1 ACP         0.0927
     18 O3'         2.1425    0.1975    1.9977 O.3       1 ACP        -0.6127
     19 C2'         0.5176    0.9128    0.3099 C.3       1 ACP         0.1095
     20 O2'        -0.2103    1.4454    1.4152 O.3       1 ACP        -0.5953
     21 C1'         0.6219    1.9765   -0.7844 C.3       1 ACP         0.4273
     22 N9          0.4237    1.4496   -2.1357 N.pl3     1 ACP        -0.6934
     23 C8          1.1856    0.4888   -2.7458 C.ar      1 ACP         0.5422
     24 N7          0.7615    0.2176   -3.9625 N.2       1 ACP        -0.5596
     25 C5         -0.3220    1.0389   -4.1485 C.ar      1 ACP        -0.2259
     26 C6         -1.1900    1.2182   -5.2210 C.ar      1 ACP         0.7526
     27 N6         -1.0341    0.4739   -6.4028 N.pl3     1 ACP        -0.9660
     28 N1         -2.1929    2.1227   -5.1127 N.ar      1 ACP        -0.8027
     29 C2         -2.2930    2.8097   -3.9492 C.ar      1 ACP         0.6758
     30 N3         -1.5176    2.7252   -2.8462 N.ar      1 ACP        -0.7221
     31 C4         -0.5489    1.8142   -3.0226 C.ar      1 ACP         0.5858
     32 HOG2        6.5931   -1.7850   -4.6163 H         1 ACP         0.4705
     33 HOG3        4.2308   -1.6295   -2.5630 H         1 ACP         0.4705
     34 H3B1        7.6420    1.0552   -3.6798 H         1 ACP         0.1189
     35 H3B2        6.2017    0.7881   -4.6571 H         1 ACP         0.1189
     36 HOA2        6.8017    3.2332    1.8260 H         1 ACP         0.4679
     37 H5'1        4.3175    1.3541   -0.6468 H         1 ACP         0.0587
     38 H5'2        4.6079    1.5730    1.0985 H         1 ACP         0.0587
     39 H4'         2.3752    2.7029    1.3156 H         1 ACP         0.0938
     40 H3'         2.4336   -0.1217   -0.0016 H         1 ACP         0.0597
     41 HO3'        1.7160   -0.6716    2.0397 H         1 ACP         0.4554
     42 H2'         0.0316    0.0155   -0.0339 H         1 ACP         0.0710
     43 HO2'       -0.1608    0.7921    2.1351 H         1 ACP         0.4360
     44 H1'        -0.1474    2.7798   -0.6651 H         1 ACP         0.1247
     45 H8          2.0314    0.0256   -2.2564 H         1 ACP         0.0875
     46 HN61       -0.2609   -0.1582   -6.4888 H         1 ACP         0.4433
     47 HN62       -1.6409    0.6517   -7.1807 H         1 ACP         0.4433
     48 H2         -3.1067    3.5253   -3.8975 H         1 ACP         0.0459
@<TRIPOS>BOND
     1    1    2 2
     2    1    3 1
     3    1    4 1
     4    1    8 1
     5    3   32 1
     6    4   33 1
     7    5    6 2
     8    5    7 1
     9    5    8 1
    10    5   12 1
    11    8   34 1
    12    8   35 1
    13    9   10 2
    14    9   11 1
    15    9   12 1
    16    9   13 1
    17   11   36 1
    18   13   14 1
    19   14   15 1
    20   14   37 1
    21   14   38 1
    22   15   16 1
    23   15   17 1
    24   15   39 1
    25   16   21 1
    26   17   18 1
    27   17   19 1
    28   17   40 1
    29   18   41 1
    30   19   20 1
    31   19   21 1
    32   19   42 1
    33   20   43 1
    34   21   22 1
    35   21   44 1
    36   22   23 ar
    37   22   31 ar
    38   23   24 ar
    39   23   45 1
    40   24   25 ar
    41   25   26 ar
    42   25   31 ar
    43   26   27 1
    44   26   28 ar
    45   27   46 1
    46   27   47 1
    47   28   29 ar
    48   29   30 ar
    49   29   48 1
    50   30   31 ar
@<TRIPOS>SUBSTRUCTURE
     1 ACP         1 GROUP 0 A     ****
@<TRIPOS>MOLECULE
[[5-(6-aminopurin-9-yl)-3,4-dihydroxy-tetrahydrofuran-2-yl]methoxy-hydroxy-phosphoryl]oxy-(phosphonomethyl)phosphinate
   48    50     1     0     0
SMALL
USER_CHARGES

@<TRIPOS>ATOM
      1 PG         -1.5278    5.3687    6.0068 P.3       1 ACP         1.6292
      2 O1G        -0.6044    6.5009    6.3429 O.2       1 ACP        -0.8674
      3 O2G        -0.8272    4.0738    5.3417 O.3       1 ACP        -0.7977
      4 O3G        -2.3556    4.7564    7.2516 O.3       1 ACP        -0.7977
      5 PB         -2.4515    6.3963    3.1130 P.3       1 ACP         1.4910
      6 O1B        -1.6491    7.6691    3.2529 O.co2     1 ACP        -0.8292
      7 O2B        -3.7406    6.3387    2.3266 O.co2     1 ACP        -0.8292
      8 C3B        -2.8245    5.7937    4.8216 C.3       1 ACP        -0.6453
      9 PA         -0.5525    5.0215    1.3253 P.3       1 ACP         1.7996
     10 O1A         0.4935    6.0854    1.1588 O.2       1 ACP        -0.8588
     11 O2A        -1.6302    4.9500    0.1208 O.3       1 ACP        -0.8037
     12 O3A        -1.4691    5.1810    2.6482 O.3       1 ACP        -0.7988
     13 O5'         0.0170    3.5129    1.4593 O.3       1 ACP        -0.5960
     14 C5'        -0.8811    2.4285    1.6206 C.3       1 ACP         0.1917
     15 C4'        -0.1994    1.3333    2.4288 C.3       1 ACP         0.0908
     16 O4'        -1.1285    0.2356    2.5840 O.3       1 ACP        -0.4111
     17 C3'         1.0324    0.7610    1.7344 C.3       1 ACP         0.0927
     18 O3'         1.9175    0.2377    2.7247 O.3       1 ACP        -0.6127
     19 C2'         0.4468   -0.3802    0.9263 C.3       1 ACP         0.1095
     20 O2'         1.3993   -1.3703    0.5961 O.3       1 ACP        -0.5953
     21 C1'        -0.6159   -0.9100    1.8769 C.3       1 ACP         0.4273
     22 N9         -1.7127   -1.6108    1.2130 N.pl3     1 ACP        -0.6934
     23 C8         -2.8641   -1.0399    0.7392 C.ar      1 ACP         0.5422
     24 N7         -3.6659   -1.9257    0.1858 N.2       1 ACP        -0.5596
     25 C5         -3.0053   -3.1223    0.3069 C.ar      1 ACP        -0.2259
     26 C6         -3.3321   -4.4178   -0.0813 C.ar      1 ACP         0.7526
     27 N6         -4.5476   -4.6866   -0.7335 N.pl3     1 ACP        -0.9660
     28 N1         -2.4608   -5.4225    0.1773 N.ar      1 ACP        -0.8027
     29 C2         -1.3053   -5.1020    0.8081 C.ar      1 ACP         0.6758
     30 N3         -0.8788   -3.8921    1.2315 N.ar      1 ACP        -0.7221
     31 C4         -1.7870   -2.9477    0.9438 C.ar      1 ACP         0.5858
     32 HOG2       -0.3476    4.1765    4.4922 H         1 ACP         0.4705
     33 HOG3       -1.8623    4.3727    8.0077 H         1 ACP         0.4705
     34 H3B1       -3.4501    4.9027    4.6969 H         1 ACP         0.1189
     35 H3B2       -3.4541    6.5633    5.2826 H         1 ACP         0.1189
     36 HOA2       -2.1821    5.7384   -0.0690 H         1 ACP         0.4679
     37 H5'1       -1.7775    2.7842    2.1389 H         1 ACP         0.0587
     38 H5'2       -1.1659    2.0534    0.6322 H         1 ACP         0.0587
     39 H4'         0.0402    1.7079    3.4342 H         1 ACP         0.0938
     40 H3'         1.5907    1.4859    1.1353 H         1 ACP         0.0597
     41 HO3'        2.6839   -0.1150    2.2479 H         1 ACP         0.4554
     42 H2'        -0.0017    0.0018    0.0005 H         1 ACP         0.0710
     43 HO2'        0.9369   -2.0558    0.0825 H         1 ACP         0.4360
     44 H1'        -0.1998   -1.6319    2.6178 H         1 ACP         0.1247
     45 H8         -3.0609    0.0200    0.8250 H         1 ACP         0.0875
     46 HN61       -5.2046   -3.9433   -0.8775 H         1 ACP         0.4433
     47 HN62       -4.7849   -5.6332   -0.9625 H         1 ACP         0.4433
     48 H2         -0.6318   -5.9307    0.9993 H         1 ACP         0.0459
@<TRIPOS>BOND
     1    1    2 2
     2    1    3 1
     3    1    4 1
     4    1    8 1
     5    3   32 1
     6    4   33 1
     7    5    6 2
     8    5    7 1
     9    5    8 1
    10    5   12 1
    11    8   34 1
    12    8   35 1
    13    9   10 2
    14    9   11 1
    15    9   12 1
    16    9   13 1
    17   11   36 1
    18   13   14 1
    19   14   15 1
    20   14   37 1
    21   14   38 1
    22   15   16 1
    23   15   17 1
    24   15   39 1
    25   16   21 1
    26   17   18 1
    27   17   19 1
    28   17   40 1
    29   18   41 1
    30   19   20 1
    31   19   21 1
    32   19   42 1
    33   20   43 1
    34   21   22 1
    35   21   44 1
    36   22   23 ar
    37   22   31 ar
    38   23   24 ar
    39   23   45 1
    40   24   25 ar
    41   25   26 ar
    42   25   31 ar
    43   26   27 1
    44   26   28 ar
    45   27   46 1
    46   27   47 1
    47   28   29 ar
    48   29   30 ar
    49   29   48 1
    50   30   31 ar
@<TRIPOS>SUBSTRUCTURE
     1 ACP         1 GROUP 0 A     ****
@<TRIPOS>MOLECULE
[[5-(6-aminopurin-9-yl)-3,4-dihydroxy-tetrahydrofuran-2-yl]methoxy-hydroxy-phosphoryl]oxy-(phosphonomethyl)phosphinate
   48    50     1     0     0
SMALL
USER_CHARGES

@<TRIPOS>ATOM
      1 PG         -5.0957    4.6918    0.4882 P.3       1 ACP         1.6292
      2 O1G        -6.2916    5.1097    1.2899 O.2       1 ACP        -0.8674
      3 O2G        -4.1056    3.6406    1.2125 O.3       1 ACP        -0.7977
      4 O3G        -5.4225    3.9915   -0.9304 O.3       1 ACP        -0.7977
      5 PB         -2.4537    5.7923   -0.9579 P.3       1 ACP         1.4910
      6 O1B        -1.8060    7.1457   -1.1382 O.co2     1 ACP        -0.8292
      7 O2B        -2.8158    4.9098   -2.1298 O.co2     1 ACP        -0.8292
      8 C3B        -3.9955    6.0508    0.0308 C.3       1 ACP        -0.6453
      9 PA         -0.0715    4.4469    0.1409 P.3       1 ACP         1.7996
     10 O1A         0.9309    5.5629    0.0817 O.2       1 ACP        -0.8588
     11 O2A         0.0046    3.4141   -1.1020 O.3       1 ACP        -0.8037
     12 O3A        -1.6152    4.9291    0.1422 O.3       1 ACP        -0.7988
     13 O5'         0.0170    3.5129    1.4593 O.3       1 ACP        -0.5960
     14 C5'        -0.8811    2.4285    1.6206 C.3       1 ACP         0.1917
     15 C4'        -0.1994    1.3333    2.4288 C.3       1 ACP         0.0908
     16 O4'        -1.1285    0.2356    2.5840 O.3       1 ACP        -0.4111
     17 C3'         1.0324    0.7610    1.7344 C.3       1 ACP         0.0927
     18 O3'         1.9175    0.2377    2.7247 O.3       1 ACP        -0.6127
     19 C2'         0.4468   -0.3802    0.9263 C.3       1 ACP         0.1095
     20 O2'         1.3993   -1.3703    0.5961 O.3       1 ACP        -0.5953
     21 C1'        -0.6159   -0.9100    1.8769 C.3       1 ACP         0.4273
     22 N9         -1.7127   -1.6108    1.2130 N.pl3     1 ACP        -0.6934
     23 C8         -2.0877   -2.9101    1.4304 C.ar      1 ACP         0.5422
     24 N7         -3.1152   -3.2613    0.6857 N.2       1 ACP        -0.5596
     25 C5         -3.4186   -2.1409   -0.0462 C.ar      1 ACP        -0.2259
     26 C6         -4.3953   -1.8809   -1.0023 C.ar      1 ACP         0.7526
     27 N6         -5.3118   -2.8767   -1.3812 N.pl3     1 ACP        -0.9660
     28 N1         -4.4538   -0.6507   -1.5667 N.ar      1 ACP        -0.8027
     29 C2         -3.5442    0.2679   -1.1609 C.ar      1 ACP         0.6758
     30 N3         -2.5561    0.1361   -0.2491 N.ar      1 ACP        -0.7221
     31 C4         -2.5568   -1.1019    0.2674 C.ar      1 ACP         0.5858
     32 HOG2       -3.3068    3.3325    0.7338 H         1 ACP         0.4705
     33 HOG3       -5.9495    3.1642   -0.9420 H         1 ACP         0.4705
     34 H3B1       -4.5961    6.7747   -0.5315 H         1 ACP         0.1189
     35 H3B2       -3.6814    6.5473    0.9559 H         1 ACP         0.1189
     36 HOA2       -0.1362    3.7550   -2.0110 H         1 ACP         0.4679
     37 H5'1       -1.7775    2.7842    2.1389 H         1 ACP         0.0587
     38 H5'2       -1.1659    2.0534    0.6322 H         1 ACP         0.0587
     39 H4'         0.0402    1.7079    3.4342 H         1 ACP         0.0938
     40 H3'         1.5907    1.4859    1.1353 H         1 ACP         0.0597
     41 HO3'        2.1521    0.9800    3.3017 H         1 ACP         0.4554
     42 H2'        -0.0017    0.0018    0.0005 H         1 ACP         0.0710
     43 HO2'        0.9369   -2.0558    0.0825 H         1 ACP         0.4360
     44 H1'        -0.1998   -1.6319    2.6178 H         1 ACP         0.1247
     45 H8         -1.5778   -3.5473    2.1399 H         1 ACP         0.0875
     46 HN61       -6.0371   -2.6553   -2.0368 H         1 ACP         0.4433
     47 HN62       -5.2887   -3.7677   -0.9225 H         1 ACP         0.4433
     48 H2         -3.6201    1.2414   -1.6336 H         1 ACP         0.0459
@<TRIPOS>BOND
     1    1    2 2
     2    1    3 1
     3    1    4 1
     4    1    8 1
     5    3   32 1
     6    4   33 1
     7    5    6 2
     8    5    7 1
     9    5    8 1
    10    5   12 1
    11    8   34 1
    12    8   35 1
    13    9   10 2
    14    9   11 1
    15    9   12 1
    16    9   13 1
    17   11   36 1
    18   13   14 1
    19   14   15 1
    20   14   37 1
    21   14   38 1
    22   15   16 1
    23   15   17 1
    24   15   39 1
    25   16   21 1
    26   17   18 1
    27   17   19 1
    28   17   40 1
    29   18   41 1
    30   19   20 1
    31   19   21 1
    32   19   42 1
    33   20   43 1
    34   21   22 1
    35   21   44 1
    36   22   23 ar
    37   22   31 ar
    38   23   24 ar
    39   23   45 1
    40   24   25 ar
    41   25   26 ar
    42   25   31 ar
    43   26   27 1
    44   26   28 ar
    45   27   46 1
    46   27   47 1
    47   28   29 ar
    48   29   30 ar
    49   29   48 1
    50   30   31 ar
@<TRIPOS>SUBSTRUCTURE
     1 ACP         1 GROUP 0 A     ****
@<TRIPOS>MOLECULE
[[5-(6-aminopurin-9-yl)-3,4-dihydroxy-tetrahydrofuran-2-yl]methoxy-hydroxy-phosphoryl]oxy-(phosphonomethyl)phosphinate
   48    50     1     0     0
SMALL
USER_CHARGES

@<TRIPOS>ATOM
      1 PG          5.9564    3.4542   -4.5369 P.3       1 ACP         1.6292
      2 O1G         4.6880    3.6325   -3.7579 O.2       1 ACP        -0.8674
      3 O2G         5.7882    2.7783   -5.9946 O.3       1 ACP        -0.7977
      4 O3G         6.7808    4.8103   -4.8390 O.3       1 ACP        -0.7977
      5 PB          7.9002    2.7991   -2.0721 P.3       1 ACP         1.4910
      6 O1B         8.5890    4.1387   -2.1936 O.co2     1 ACP        -0.8292
      7 O2B         8.6217    1.5631   -1.5872 O.co2     1 ACP        -0.8292
      8 C3B         7.1827    2.4002   -3.7296 C.3       1 ACP        -0.6453
      9 PA          6.2292    3.5136    0.2496 P.3       1 ACP         1.7996
     10 O1A         6.6927    4.9186    0.5045 O.2       1 ACP        -0.8588
     11 O2A         6.9320    2.3979    1.1869 O.3       1 ACP        -0.8037
     12 O3A         6.5026    2.9775   -1.2516 O.3       1 ACP        -0.7988
     13 O5'         4.6408    3.2691    0.4376 O.3       1 ACP        -0.5960
     14 C5'         4.0922    1.9801    0.2227 C.3       1 ACP         0.1917
     15 C4'         2.5944    2.0310    0.4653 C.3       1 ACP         0.0908
     16 O4'         1.9327    2.5740   -0.6889 O.3       1 ACP        -0.4111
     17 C3'         1.9685    0.6634    0.6767 C.3       1 ACP         0.0927
     18 O3'         2.1425    0.1975    1.9977 O.3       1 ACP        -0.6127
     19 C2'         0.5176    0.9128    0.3099 C.3       1 ACP         0.1095
     20 O2'        -0.2103    1.4454    1.4152 O.3       1 ACP        -0.5953
     21 C1'         0.6219    1.9765   -0.7844 C.3       1 ACP         0.4273
     22 N9          0.4237    1.4496   -2.1357 N.pl3     1 ACP        -0.6934
     23 C8         -0.7736    1.3475   -2.7932 C.ar      1 ACP         0.5422
     24 N7         -0.6356    0.8373   -3.9991 N.2       1 ACP        -0.5596
     25 C5          0.7095    0.5981   -4.1281 C.ar      1 ACP        -0.2259
     26 C6          1.4733    0.0704   -5.1643 C.ar      1 ACP         0.7526
     27 N6          0.8693   -0.3355   -6.3666 N.pl3     1 ACP        -0.9660
     28 N1          2.8130   -0.0482   -5.0009 N.ar      1 ACP        -0.8027
     29 C2          3.3380    0.3602   -3.8204 C.ar      1 ACP         0.6758
     30 N3          2.7052    0.8841   -2.7480 N.ar      1 ACP        -0.7221
     31 C4          1.3867    0.9726   -2.9785 C.ar      1 ACP         0.5858
     32 HOG2        5.2246    3.2233   -6.6628 H         1 ACP         0.4705
     33 HOG3        7.6191    4.7541   -5.3453 H         1 ACP         0.4705
     34 H3B1        6.7360    1.4042   -3.6327 H         1 ACP         0.1189
     35 H3B2        8.0347    2.3024   -4.4120 H         1 ACP         0.1189
     36 HOA2        6.8297    2.4637    2.1603 H         1 ACP         0.4679
     37 H5'1        4.3024    1.6721   -0.8067 H         1 ACP         0.0587
     38 H5'2        4.5673    1.2730    0.9105 H         1 ACP         0.0587
     39 H4'         2.3752    2.7029    1.3156 H         1 ACP         0.0938
     40 H3'         2.4336   -0.1217   -0.0016 H         1 ACP         0.0597
     41 HO3'        1.7160   -0.6716    2.0397 H         1 ACP         0.4554
     42 H2'         0.0316    0.0155   -0.0339 H         1 ACP         0.0710
     43 HO2'       -0.1608    0.7921    2.1351 H         1 ACP         0.4360
     44 H1'        -0.1474    2.7798   -0.6651 H         1 ACP         0.1247
     45 H8         -1.7070    1.6599   -2.3451 H         1 ACP         0.0875
     46 HN61       -0.1277   -0.2866   -6.4583 H         1 ACP         0.4433
     47 HN62        1.4308   -0.7566   -7.0823 H         1 ACP         0.4433
     48 H2          4.4130    0.2505   -3.7241 H         1 ACP         0.0459
@<TRIPOS>BOND
     1    1    2 2
     2    1    3 1
     3    1    4 1
     4    1    8 1
     5    3   32 1
     6    4   33 1
     7    5    6 2
     8    5    7 1
     9    5    8 1
    10    5   12 1
    11    8   34 1
    12    8   35 1
    13    9   10 2
    14    9   11 1
    15    9   12 1
    16    9   13 1
    17   11   36 1
    18   13   14 1
    19   14   15 1
    20   14   37 1
    21   14   38 1
    22   15   16 1
    23   15   17 1
    24   15   39 1
    25   16   21 1
    26   17   18 1
    27   17   19 1
    28   17   40 1
    29   18   41 1
    30   19   20 1
    31   19   21 1
    32   19   42 1
    33   20   43 1
    34   21   22 1
    35   21   44 1
    36   22   23 ar
    37   22   31 ar
    38   23   24 ar
    39   23   45 1
    40   24   25 ar
    41   25   26 ar
    42   25   31 ar
    43   26   27 1
    44   26   28 ar
    45   27   46 1
    46   27   47 1
    47   28   29 ar
    48   29   30 ar
    49   29   48 1
    50   30   31 ar
@<TRIPOS>SUBSTRUCTURE
     1 ACP         1 GROUP 0 A     ****
@<TRIPOS>MOLECULE
[[5-(6-aminopurin-9-yl)-3,4-dihydroxy-tetrahydrofuran-2-yl]methoxy-hydroxy-phosphoryl]oxy-(phosphonomethyl)phosphinate
   48    50     1     0     0
SMALL
USER_CHARGES

@<TRIPOS>ATOM
      1 PG         -3.9730    3.8943    4.4904 P.3       1 ACP         1.6292
      2 O1G        -3.5452    2.4889    4.7891 O.2       1 ACP        -0.8674
      3 O2G        -4.2752    4.2138    2.9358 O.3       1 ACP        -0.7977
      4 O3G        -5.3123    4.3870    5.2476 O.3       1 ACP        -0.7977
      5 PB         -1.0551    5.1975    4.2251 P.3       1 ACP         1.4910
      6 O1B        -0.3840    3.8922    4.5849 O.co2     1 ACP        -0.8292
      7 O2B        -0.4535    6.5375    4.5801 O.co2     1 ACP        -0.8292
      8 C3B        -2.7586    5.1535    4.9444 C.3       1 ACP        -0.6453
      9 PA         -0.5525    5.0215    1.3253 P.3       1 ACP         1.7996
     10 O1A         0.4935    6.0854    1.1588 O.2       1 ACP        -0.8588
     11 O2A        -1.6302    4.9500    0.1208 O.3       1 ACP        -0.8037
     12 O3A        -1.4691    5.1810    2.6482 O.3       1 ACP        -0.7988
     13 O5'         0.0170    3.5129    1.4593 O.3       1 ACP        -0.5960
     14 C5'        -0.8811    2.4285    1.6206 C.3       1 ACP         0.1917
     15 C4'        -0.1994    1.3333    2.4288 C.3       1 ACP         0.0908
     16 O4'        -1.1285    0.2356    2.5840 O.3       1 ACP        -0.4111
     17 C3'         1.0324    0.7610    1.7344 C.3       1 ACP         0.0927
     18 O3'         1.9175    0.2377    2.7247 O.3       1 ACP        -0.6127
     19 C2'         0.4468   -0.3802    0.9263 C.3       1 ACP         0.1095
     20 O2'         1.3993   -1.3703    0.5961 O.3       1 ACP        -0.5953
     21 C1'        -0.6159   -0.9100    1.8769 C.3       1 ACP         0.4273
     22 N9         -1.7127   -1.6108    1.2130 N.pl3     1 ACP        -0.6934
     23 C8         -2.8641   -1.0399    0.7392 C.ar      1 ACP         0.5422
     24 N7         -3.6659   -1.9257    0.1858 N.2       1 ACP        -0.5596
     25 C5         -3.0053   -3.1223    0.3069 C.ar      1 ACP        -0.2259
     26 C6         -3.3321   -4.4178   -0.0813 C.ar      1 ACP         0.7526
     27 N6         -4.5476   -4.6866   -0.7335 N.pl3     1 ACP        -0.9660
     28 N1         -2.4608   -5.4225    0.1773 N.ar      1 ACP        -0.8027
     29 C2         -1.3053   -5.1020    0.8081 C.ar      1 ACP         0.6758
     30 N3         -0.8788   -3.8921    1.2315 N.ar      1 ACP        -0.7221
     31 C4         -1.7870   -2.9477    0.9438 C.ar      1 ACP         0.5858
     32 HOG2       -3.5566    4.0981    2.2783 H         1 ACP         0.4705
     33 HOG3       -6.1513    3.9028    5.0928 H         1 ACP         0.4705
     34 H3B1       -3.2064    6.1278    4.7181 H         1 ACP         0.1189
     35 H3B2       -2.6264    5.1083    6.0314 H         1 ACP         0.1189
     36 HOA2       -2.1821    5.7384   -0.0690 H         1 ACP         0.4679
     37 H5'1       -1.7775    2.7842    2.1389 H         1 ACP         0.0587
     38 H5'2       -1.1659    2.0534    0.6322 H         1 ACP         0.0587
     39 H4'         0.0402    1.7079    3.4342 H         1 ACP         0.0938
     40 H3'         1.5907    1.4859    1.1353 H         1 ACP         0.0597
     41 HO3'        2.6839   -0.1150    2.2479 H         1 ACP         0.4554
     42 H2'        -0.0017    0.0018    0.0005 H         1 ACP         0.0710
     43 HO2'        2.0953   -0.9375    0.0709 H         1 ACP         0.4360
     44 H1'        -0.1998   -1.6319    2.6178 H         1 ACP         0.1247
     45 H8         -3.0609    0.0200    0.8250 H         1 ACP         0.0875
     46 HN61       -5.2046   -3.9433   -0.8775 H         1 ACP         0.4433
     47 HN62       -4.7849   -5.6332   -0.9625 H         1 ACP         0.4433
     48 H2         -0.6318   -5.9307    0.9993 H         1 ACP         0.0459
@<TRIPOS>BOND
     1    1    2 2
     2    1    3 1
     3    1    4 1
     4    1    8 1
     5    3   32 1
     6    4   33 1
     7    5    6 2
     8    5    7 1
     9    5    8 1
    10    5   12 1
    11    8   34 1
    12    8   35 1
    13    9   10 2
    14    9   11 1
    15    9   12 1
    16    9   13 1
    17   11   36 1
    18   13   14 1
    19   14   15 1
    20   14   37 1
    21   14   38 1
    22   15   16 1
    23   15   17 1
    24   15   39 1
    25   16   21 1
    26   17   18 1
    27   17   19 1
    28   17   40 1
    29   18   41 1
    30   19   20 1
    31   19   21 1
    32   19   42 1
    33   20   43 1
    34   21   22 1
    35   21   44 1
    36   22   23 ar
    37   22   31 ar
    38   23   24 ar
    39   23   45 1
    40   24   25 ar
    41   25   26 ar
    42   25   31 ar
    43   26   27 1
    44   26   28 ar
    45   27   46 1
    46   27   47 1
    47   28   29 ar
    48   29   30 ar
    49   29   48 1
    50   30   31 ar
@<TRIPOS>SUBSTRUCTURE
     1 ACP         1 GROUP 0 A     ****
@<TRIPOS>MOLECULE
[[5-(6-aminopurin-9-yl)-3,4-dihydroxy-tetrahydrofuran-2-yl]methoxy-hydroxy-phosphoryl]oxy-(phosphonomethyl)phosphinate
   48    50     1     0     0
SMALL
USER_CHARGES

@<TRIPOS>ATOM
      1 PG         -4.6509    3.5366   -0.5018 P.3       1 ACP         1.6292
      2 O1G        -3.5234    2.9797   -1.3179 O.2       1 ACP        -0.8674
      3 O2G        -6.0642    3.6763   -1.2721 O.3       1 ACP        -0.7977
      4 O3G        -5.0236    2.6989    0.8283 O.3       1 ACP        -0.7977
      5 PB         -2.9443    5.6052    1.2563 P.3       1 ACP         1.4910
      6 O1B        -3.1080    4.7619    2.4995 O.co2     1 ACP        -0.8292
      7 O2B        -2.8316    7.1110    1.3132 O.co2     1 ACP        -0.8292
      8 C3B        -4.3573    5.2033    0.1323 C.3       1 ACP        -0.6453
      9 PA         -0.1733    4.7801    0.6785 P.3       1 ACP         1.7996
     10 O1A         0.5701    6.0367    1.0281 O.2       1 ACP        -0.8588
     11 O2A         0.3946    4.0088   -0.6253 O.3       1 ACP        -0.8037
     12 O3A        -1.7399    4.9978    0.3404 O.3       1 ACP        -0.7988
     13 O5'        -0.2069    3.6554    1.8412 O.3       1 ACP        -0.5960
     14 C5'        -0.8811    2.4285    1.6206 C.3       1 ACP         0.1917
     15 C4'        -0.1994    1.3333    2.4288 C.3       1 ACP         0.0908
     16 O4'        -1.1285    0.2356    2.5840 O.3       1 ACP        -0.4111
     17 C3'         1.0324    0.7610    1.7344 C.3       1 ACP         0.0927
     18 O3'         1.9175    0.2377    2.7247 O.3       1 ACP        -0.6127
     19 C2'         0.4468   -0.3802    0.9263 C.3       1 ACP         0.1095
     20 O2'         1.3993   -1.3703    0.5961 O.3       1 ACP        -0.5953
     21 C1'        -0.6159   -0.9100    1.8769 C.3       1 ACP         0.4273
     22 N9         -1.7127   -1.6108    1.2130 N.pl3     1 ACP        -0.6934
     23 C8         -2.5476   -1.0844    0.2632 C.ar      1 ACP         0.5422
     24 N7         -3.4391   -1.9591   -0.1536 N.2       1 ACP        -0.5596
     25 C5         -3.1701   -3.1016    0.5574 C.ar      1 ACP        -0.2259
     26 C6         -3.7593   -4.3620    0.5656 C.ar      1 ACP         0.7526
     27 N6         -4.8512   -4.6493   -0.2712 N.pl3     1 ACP        -0.9660
     28 N1         -3.2659   -5.3144    1.3932 N.ar      1 ACP        -0.8027
     29 C2         -2.2122   -4.9785    2.1759 C.ar      1 ACP         0.6758
     30 N3         -1.5595   -3.7985    2.2572 N.ar      1 ACP        -0.7221
     31 C4         -2.0986   -2.9054    1.4140 C.ar      1 ACP         0.5858
     32 HOG2       -6.4861    2.8713   -1.6411 H         1 ACP         0.4705
     33 HOG3       -5.7537    3.0166    1.4012 H         1 ACP         0.4705
     34 H3B1       -4.2483    5.8627   -0.7362 H         1 ACP         0.1189
     35 H3B2       -5.2634    5.5200    0.6613 H         1 ACP         0.1189
     36 HOA2        1.3229    3.6919   -0.6217 H         1 ACP         0.4679
     37 H5'1       -1.9259    2.5372    1.9293 H         1 ACP         0.0587
     38 H5'2       -0.8477    2.1923    0.5521 H         1 ACP         0.0587
     39 H4'         0.0402    1.7079    3.4342 H         1 ACP         0.0938
     40 H3'         1.5907    1.4859    1.1353 H         1 ACP         0.0597
     41 HO3'        2.6839   -0.1150    2.2479 H         1 ACP         0.4554
     42 H2'        -0.0017    0.0018    0.0005 H         1 ACP         0.0710
     43 HO2'        2.0953   -0.9375    0.0709 H         1 ACP         0.4360
     44 H1'        -0.1998   -1.6319    2.6178 H         1 ACP         0.1247
     45 H8         -2.4576   -0.0639   -0.0831 H         1 ACP         0.0875
     46 HN61       -5.2371   -3.9234   -0.8448 H         1 ACP         0.4433
     47 HN62       -5.2909   -5.5485   -0.2160 H         1 ACP         0.4433
     48 H2         -1.8433   -5.7650    2.8259 H         1 ACP         0.0459
@<TRIPOS>BOND
     1    1    2 2
     2    1    3 1
     3    1    4 1
     4    1    8 1
     5    3   32 1
     6    4   33 1
     7    5    6 2
     8    5    7 1
     9    5    8 1
    10    5   12 1
    11    8   34 1
    12    8   35 1
    13    9   10 2
    14    9   11 1
    15    9   12 1
    16    9   13 1
    17   11   36 1
    18   13   14 1
    19   14   15 1
    20   14   37 1
    21   14   38 1
    22   15   16 1
    23   15   17 1
    24   15   39 1
    25   16   21 1
    26   17   18 1
    27   17   19 1
    28   17   40 1
    29   18   41 1
    30   19   20 1
    31   19   21 1
    32   19   42 1
    33   20   43 1
    34   21   22 1
    35   21   44 1
    36   22   23 ar
    37   22   31 ar
    38   23   24 ar
    39   23   45 1
    40   24   25 ar
    41   25   26 ar
    42   25   31 ar
    43   26   27 1
    44   26   28 ar
    45   27   46 1
    46   27   47 1
    47   28   29 ar
    48   29   30 ar
    49   29   48 1
    50   30   31 ar
@<TRIPOS>SUBSTRUCTURE
     1 ACP         1 GROUP 0 A     ****
@<TRIPOS>MOLECULE
[[5-(6-aminopurin-9-yl)-3,4-dihydroxy-tetrahydrofuran-2-yl]methoxy-hydroxy-phosphoryl]oxy-(phosphonomethyl)phosphinate
   48    50     1     0     0
SMALL
USER_CHARGES

@<TRIPOS>ATOM
      1 PG         -3.3484    5.9704   -2.5307 P.3       1 ACP         1.6292
      2 O1G        -4.5999    6.7921   -2.4537 O.2       1 ACP        -0.8674
      3 O2G        -2.8154    5.6531   -4.0224 O.3       1 ACP        -0.7977
      4 O3G        -2.0581    6.6016   -1.7916 O.3       1 ACP        -0.7977
      5 PB         -3.9014    4.0850    0.0035 P.3       1 ACP         1.4910
      6 O1B        -3.9281    2.5951    0.2552 O.co2     1 ACP        -0.8292
      7 O2B        -5.0805    4.9764    0.3174 O.co2     1 ACP        -0.8292
      8 C3B        -3.4882    4.3311   -1.7826 C.3       1 ACP        -0.6453
      9 PA         -2.0141    4.7372    2.1728 P.3       1 ACP         1.7996
     10 O1A        -2.9324    5.4191    3.1452 O.2       1 ACP        -0.8588
     11 O2A        -0.5452    5.4055    2.0600 O.3       1 ACP        -0.8037
     12 O3A        -2.5444    4.7218    0.6450 O.3       1 ACP        -0.7988
     13 O5'        -1.7334    3.1724    2.4742 O.3       1 ACP        -0.5960
     14 C5'        -0.8811    2.4285    1.6206 C.3       1 ACP         0.1917
     15 C4'        -0.1994    1.3333    2.4288 C.3       1 ACP         0.0908
     16 O4'        -1.1285    0.2356    2.5840 O.3       1 ACP        -0.4111
     17 C3'         1.0324    0.7610    1.7344 C.3       1 ACP         0.0927
     18 O3'         1.9175    0.2377    2.7247 O.3       1 ACP        -0.6127
     19 C2'         0.4468   -0.3802    0.9263 C.3       1 ACP         0.1095
     20 O2'         1.3993   -1.3703    0.5961 O.3       1 ACP        -0.5953
     21 C1'        -0.6159   -0.9100    1.8769 C.3       1 ACP         0.4273
     22 N9         -1.7127   -1.6108    1.2130 N.pl3     1 ACP        -0.6934
     23 C8         -2.8641   -1.0399    0.7392 C.ar      1 ACP         0.5422
     24 N7         -3.6659   -1.9257    0.1858 N.2       1 ACP        -0.5596
     25 C5         -3.0053   -3.1223    0.3069 C.ar      1 ACP        -0.2259
     26 C6         -3.3321   -4.4178   -0.0813 C.ar      1 ACP         0.7526
     27 N6         -4.5476   -4.6866   -0.7335 N.pl3     1 ACP        -0.9660
     28 N1         -2.4608   -5.4225    0.1773 N.ar      1 ACP        -0.8027
     29 C2         -1.3053   -5.1020    0.8081 C.ar      1 ACP         0.6758
     30 N3         -0.8788   -3.8921    1.2315 N.ar      1 ACP        -0.7221
     31 C4         -1.7870   -2.9477    0.9438 C.ar      1 ACP         0.5858
     32 HOG2       -2.5794    6.4008   -4.6120 H         1 ACP         0.4705
     33 HOG3       -1.2110    6.1074   -1.8094 H         1 ACP         0.4705
     34 H3B1       -4.2528    3.7849   -2.3466 H         1 ACP         0.1189
     35 H3B2       -2.5379    3.8106   -1.9473 H         1 ACP         0.1189
     36 HOA2       -0.4706    6.3413    1.7757 H         1 ACP         0.4679
     37 H5'1       -1.4795    1.9921    0.8142 H         1 ACP         0.0587
     38 H5'2       -0.1362    3.1035    1.1868 H         1 ACP         0.0587
     39 H4'         0.0402    1.7079    3.4342 H         1 ACP         0.0938
     40 H3'         1.5907    1.4859    1.1353 H         1 ACP         0.0597
     41 HO3'        2.1521    0.9800    3.3017 H         1 ACP         0.4554
     42 H2'        -0.0017    0.0018    0.0005 H         1 ACP         0.0710
     43 HO2'        0.9369   -2.0558    0.0825 H         1 ACP         0.4360
     44 H1'        -0.1998   -1.6319    2.6178 H         1 ACP         0.1247
     45 H8         -3.0609    0.0200    0.8250 H         1 ACP         0.0875
     46 HN61       -5.2046   -3.9433   -0.8775 H         1 ACP         0.4433
     47 HN62       -4.7849   -5.6332   -0.9625 H         1 ACP         0.4433
     48 H2         -0.6318   -5.9307    0.9993 H         1 ACP         0.0459
@<TRIPOS>BOND
     1    1    2 2
     2    1    3 1
     3    1    4 1
     4    1    8 1
     5    3   32 1
     6    4   33 1
     7    5    6 2
     8    5    7 1
     9    5    8 1
    10    5   12 1
    11    8   34 1
    12    8   35 1
    13    9   10 2
    14    9   11 1
    15    9   12 1
    16    9   13 1
    17   11   36 1
    18   13   14 1
    19   14   15 1
    20   14   37 1
    21   14   38 1
    22   15   16 1
    23   15   17 1
    24   15   39 1
    25   16   21 1
    26   17   18 1
    27   17   19 1
    28   17   40 1
    29   18   41 1
    30   19   20 1
    31   19   21 1
    32   19   42 1
    33   20   43 1
    34   21   22 1
    35   21   44 1
    36   22   23 ar
    37   22   31 ar
    38   23   24 ar
    39   23   45 1
    40   24   25 ar
    41   25   26 ar
    42   25   31 ar
    43   26   27 1
    44   26   28 ar
    45   27   46 1
    46   27   47 1
    47   28   29 ar
    48   29   30 ar
    49   29   48 1
    50   30   31 ar
@<TRIPOS>SUBSTRUCTURE
     1 ACP         1 GROUP 0 A     ****
@<TRIPOS>MOLECULE
[[5-(6-aminopurin-9-yl)-3,4-dihydroxy-tetrahydrofuran-2-yl]methoxy-hydroxy-phosphoryl]oxy-(phosphonomethyl)phosphinate
   48    50     1     0     0
SMALL
USER_CHARGES

@<TRIPOS>ATOM
      1 PG         -1.8741    4.2408   -2.8401 P.3       1 ACP         1.6292
      2 O1G        -2.2436    3.6141   -4.1509 O.2       1 ACP        -0.8674
      3 O2G        -1.2730    3.2311   -1.7313 O.3       1 ACP        -0.7977
      4 O3G        -0.7707    5.4179   -2.9211 O.3       1 ACP        -0.7977
      5 PB         -3.0530    5.8724   -0.3439 P.3       1 ACP         1.4910
      6 O1B        -4.4103    6.4045    0.0539 O.co2     1 ACP        -0.8292
      7 O2B        -1.8364    6.7629   -0.4448 O.co2     1 ACP        -0.8292
      8 C3B        -3.2530    5.0301   -1.9785 C.3       1 ACP        -0.6453
      9 PA         -2.5516    4.3890    2.1542 P.3       1 ACP         1.7996
     10 O1A        -3.7879    4.7308    2.9341 O.2       1 ACP        -0.8588
     11 O2A        -1.2616    5.2960    2.5158 O.3       1 ACP        -0.8037
     12 O3A        -2.6991    4.5573    0.5525 O.3       1 ACP        -0.7988
     13 O5'        -2.0397    2.8622    2.3121 O.3       1 ACP        -0.5960
     14 C5'        -0.8811    2.4285    1.6206 C.3       1 ACP         0.1917
     15 C4'        -0.1994    1.3333    2.4288 C.3       1 ACP         0.0908
     16 O4'        -1.1285    0.2356    2.5840 O.3       1 ACP        -0.4111
     17 C3'         1.0324    0.7610    1.7344 C.3       1 ACP         0.0927
     18 O3'         1.9175    0.2377    2.7247 O.3       1 ACP        -0.6127
     19 C2'         0.4468   -0.3802    0.9263 C.3       1 ACP         0.1095
     20 O2'         1.3993   -1.3703    0.5961 O.3       1 ACP        -0.5953
     21 C1'        -0.6159   -0.9100    1.8769 C.3       1 ACP         0.4273
     22 N9         -1.7127   -1.6108    1.2130 N.pl3     1 ACP        -0.6934
     23 C8         -2.5476   -1.0844    0.2632 C.ar      1 ACP         0.5422
     24 N7         -3.4391   -1.9591   -0.1536 N.2       1 ACP        -0.5596
     25 C5         -3.1701   -3.1016    0.5574 C.ar      1 ACP        -0.2259
     26 C6         -3.7593   -4.3620    0.5656 C.ar      1 ACP         0.7526
     27 N6         -4.8512   -4.6493   -0.2712 N.pl3     1 ACP        -0.9660
     28 N1         -3.2659   -5.3144    1.3932 N.ar      1 ACP        -0.8027
     29 C2         -2.2122   -4.9785    2.1759 C.ar      1 ACP         0.6758
     30 N3         -1.5595   -3.7985    2.2572 N.ar      1 ACP        -0.7221
     31 C4         -2.0986   -2.9054    1.4140 C.ar      1 ACP         0.5858
     32 HOG2       -1.0141    3.5872   -0.8548 H         1 ACP         0.4705
     33 HOG3        0.1176    5.2127   -3.2833 H         1 ACP         0.4705
     34 H3B1       -3.6662    5.7845   -2.6575 H         1 ACP         0.1189
     35 H3B2       -4.0303    4.2711   -1.8342 H         1 ACP         0.1189
     36 HOA2       -1.3128    6.2668    2.3850 H         1 ACP         0.4679
     37 H5'1       -1.1760    2.0499    0.6365 H         1 ACP         0.0587
     38 H5'2       -0.2073    3.2811    1.4873 H         1 ACP         0.0587
     39 H4'         0.0402    1.7079    3.4342 H         1 ACP         0.0938
     40 H3'         1.5907    1.4859    1.1353 H         1 ACP         0.0597
     41 HO3'        2.6839   -0.1150    2.2479 H         1 ACP         0.4554
     42 H2'        -0.0017    0.0018    0.0005 H         1 ACP         0.0710
     43 HO2'        0.9369   -2.0558    0.0825 H         1 ACP         0.4360
     44 H1'        -0.1998   -1.6319    2.6178 H         1 ACP         0.1247
     45 H8         -2.4576   -0.0639   -0.0831 H         1 ACP         0.0875
     46 HN61       -5.2371   -3.9234   -0.8448 H         1 ACP         0.4433
     47 HN62       -5.2909   -5.5485   -0.2160 H         1 ACP         0.4433
     48 H2         -1.8433   -5.7650    2.8259 H         1 ACP         0.0459
@<TRIPOS>BOND
     1    1    2 2
     2    1    3 1
     3    1    4 1
     4    1    8 1
     5    3   32 1
     6    4   33 1
     7    5    6 2
     8    5    7 1
     9    5    8 1
    10    5   12 1
    11    8   34 1
    12    8   35 1
    13    9   10 2
    14    9   11 1
    15    9   12 1
    16    9   13 1
    17   11   36 1
    18   13   14 1
    19   14   15 1
    20   14   37 1
    21   14   38 1
    22   15   16 1
    23   15   17 1
    24   15   39 1
    25   16   21 1
    26   17   18 1
    27   17   19 1
    28   17   40 1
    29   18   41 1
    30   19   20 1
    31   19   21 1
    32   19   42 1
    33   20   43 1
    34   21   22 1
    35   21   44 1
    36   22   23 ar
    37   22   31 ar
    38   23   24 ar
    39   23   45 1
    40   24   25 ar
    41   25   26 ar
    42   25   31 ar
    43   26   27 1
    44   26   28 ar
    45   27   46 1
    46   27   47 1
    47   28   29 ar
    48   29   30 ar
    49   29   48 1
    50   30   31 ar
@<TRIPOS>SUBSTRUCTURE
     1 ACP         1 GROUP 0 A     ****
@<TRIPOS>MOLECULE
[[5-(6-aminopurin-9-yl)-3,4-dihydroxy-tetrahydrofuran-2-yl]methoxy-hydroxy-phosphoryl]oxy-(phosphonomethyl)phosphinate
   48    50     1     0     0
SMALL
USER_CHARGES

@<TRIPOS>ATOM
      1 PG         -4.8812    6.8789    1.8639 P.3       1 ACP         1.6292
      2 O1G        -4.6367    6.7140    0.3941 O.2       1 ACP        -0.8674
      3 O2G        -4.5698    8.3477    2.4603 O.3       1 ACP        -0.7977
      4 O3G        -6.3920    6.5819    2.3529 O.3       1 ACP        -0.7977
      5 PB         -2.0405    5.8173    2.9061 P.3       1 ACP         1.4910
      6 O1B        -1.5748    4.7761    3.8974 O.co2     1 ACP        -0.8292
      7 O2B        -1.6156    7.2645    2.9983 O.co2     1 ACP        -0.8292
      8 C3B        -3.8900    5.7877    2.9095 C.3       1 ACP        -0.6453
      9 PA         -0.4421    4.8274    0.6350 P.3       1 ACP         1.7996
     10 O1A         0.5938    5.9089    0.5310 O.2       1 ACP        -0.8588
     11 O2A        -0.9616    4.2610   -0.7886 O.3       1 ACP        -0.8037
     12 O3A        -1.8029    5.2700    1.3888 O.3       1 ACP        -0.7988
     13 O5'         0.0170    3.5129    1.4593 O.3       1 ACP        -0.5960
     14 C5'        -0.8811    2.4285    1.6206 C.3       1 ACP         0.1917
     15 C4'        -0.1994    1.3333    2.4288 C.3       1 ACP         0.0908
     16 O4'        -1.1285    0.2356    2.5840 O.3       1 ACP        -0.4111
     17 C3'         1.0324    0.7610    1.7344 C.3       1 ACP         0.0927
     18 O3'         1.9175    0.2377    2.7247 O.3       1 ACP        -0.6127
     19 C2'         0.4468   -0.3802    0.9263 C.3       1 ACP         0.1095
     20 O2'         1.3993   -1.3703    0.5961 O.3       1 ACP        -0.5953
     21 C1'        -0.6159   -0.9100    1.8769 C.3       1 ACP         0.4273
     22 N9         -1.7127   -1.6108    1.2130 N.pl3     1 ACP        -0.6934
     23 C8         -2.8641   -1.0399    0.7392 C.ar      1 ACP         0.5422
     24 N7         -3.6659   -1.9257    0.1858 N.2       1 ACP        -0.5596
     25 C5         -3.0053   -3.1223    0.3069 C.ar      1 ACP        -0.2259
     26 C6         -3.3321   -4.4178   -0.0813 C.ar      1 ACP         0.7526
     27 N6         -4.5476   -4.6866   -0.7335 N.pl3     1 ACP        -0.9660
     28 N1         -2.4608   -5.4225    0.1773 N.ar      1 ACP        -0.8027
     29 C2         -1.3053   -5.1020    0.8081 C.ar      1 ACP         0.6758
     30 N3         -0.8788   -3.8921    1.2315 N.ar      1 ACP        -0.7221
     31 C4         -1.7870   -2.9477    0.9438 C.ar      1 ACP         0.5858
     32 HOG2       -3.6608    8.7085    2.3848 H         1 ACP         0.4705
     33 HOG3       -7.1253    7.1186    1.9835 H         1 ACP         0.4705
     34 H3B1       -4.1923    5.9746    3.9461 H         1 ACP         0.1189
     35 H3B2       -4.1759    4.7560    2.6750 H         1 ACP         0.1189
     36 HOA2       -1.3885    4.8804   -1.4181 H         1 ACP         0.4679
     37 H5'1       -1.7775    2.7842    2.1389 H         1 ACP         0.0587
     38 H5'2       -1.1659    2.0534    0.6322 H         1 ACP         0.0587
     39 H4'         0.0402    1.7079    3.4342 H         1 ACP         0.0938
     40 H3'         1.5907    1.4859    1.1353 H         1 ACP         0.0597
     41 HO3'        2.1521    0.9800    3.3017 H         1 ACP         0.4554
     42 H2'        -0.0017    0.0018    0.0005 H         1 ACP         0.0710
     43 HO2'        0.9369   -2.0558    0.0825 H         1 ACP         0.4360
     44 H1'        -0.1998   -1.6319    2.6178 H         1 ACP         0.1247
     45 H8         -3.0609    0.0200    0.8250 H         1 ACP         0.0875
     46 HN61       -5.2046   -3.9433   -0.8775 H         1 ACP         0.4433
     47 HN62       -4.7849   -5.6332   -0.9625 H         1 ACP         0.4433
     48 H2         -0.6318   -5.9307    0.9993 H         1 ACP         0.0459
@<TRIPOS>BOND
     1    1    2 2
     2    1    3 1
     3    1    4 1
     4    1    8 1
     5    3   32 1
     6    4   33 1
     7    5    6 2
     8    5    7 1
     9    5    8 1
    10    5   12 1
    11    8   34 1
    12    8   35 1
    13    9   10 2
    14    9   11 1
    15    9   12 1
    16    9   13 1
    17   11   36 1
    18   13   14 1
    19   14   15 1
    20   14   37 1
    21   14   38 1
    22   15   16 1
    23   15   17 1
    24   15   39 1
    25   16   21 1
    26   17   18 1
    27   17   19 1
    28   17   40 1
    29   18   41 1
    30   19   20 1
    31   19   21 1
    32   19   42 1
    33   20   43 1
    34   21   22 1
    35   21   44 1
    36   22   23 ar
    37   22   31 ar
    38   23   24 ar
    39   23   45 1
    40   24   25 ar
    41   25   26 ar
    42   25   31 ar
    43   26   27 1
    44   26   28 ar
    45   27   46 1
    46   27   47 1
    47   28   29 ar
    48   29   30 ar
    49   29   48 1
    50   30   31 ar
@<TRIPOS>SUBSTRUCTURE
     1 ACP         1 GROUP 0 A     ****
@<TRIPOS>MOLECULE
[[5-(6-aminopurin-9-yl)-3,4-dihydroxy-tetrahydrofuran-2-yl]methoxy-hydroxy-phosphoryl]oxy-(phosphonomethyl)phosphinate
   48    50     1     0     0
SMALL
USER_CHARGES

@<TRIPOS>ATOM
      1 PG         -5.0957    4.6918    0.4882 P.3       1 ACP         1.6292
      2 O1G        -6.2916    5.1097    1.2899 O.2       1 ACP        -0.8674
      3 O2G        -4.1056    3.6406    1.2125 O.3       1 ACP        -0.7977
      4 O3G        -5.4225    3.9915   -0.9304 O.3       1 ACP        -0.7977
      5 PB         -2.4537    5.7923   -0.9579 P.3       1 ACP         1.4910
      6 O1B        -1.8060    7.1457   -1.1382 O.co2     1 ACP        -0.8292
      7 O2B        -2.8158    4.9098   -2.1298 O.co2     1 ACP        -0.8292
      8 C3B        -3.9955    6.0508    0.0308 C.3       1 ACP        -0.6453
      9 PA         -0.0715    4.4469    0.1409 P.3       1 ACP         1.7996
     10 O1A         0.9309    5.5629    0.0817 O.2       1 ACP        -0.8588
     11 O2A         0.0046    3.4141   -1.1020 O.3       1 ACP        -0.8037
     12 O3A        -1.6152    4.9291    0.1422 O.3       1 ACP        -0.7988
     13 O5'         0.0170    3.5129    1.4593 O.3       1 ACP        -0.5960
     14 C5'        -0.8811    2.4285    1.6206 C.3       1 ACP         0.1917
     15 C4'        -0.1994    1.3333    2.4288 C.3       1 ACP         0.0908
     16 O4'        -1.1285    0.2356    2.5840 O.3       1 ACP        -0.4111
     17 C3'         1.0324    0.7610    1.7344 C.3       1 ACP         0.0927
     18 O3'         1.9175    0.2377    2.7247 O.3       1 ACP        -0.6127
     19 C2'         0.4468   -0.3802    0.9263 C.3       1 ACP         0.1095
     20 O2'         1.3993   -1.3703    0.5961 O.3       1 ACP        -0.5953
     21 C1'        -0.6159   -0.9100    1.8769 C.3       1 ACP         0.4273
     22 N9         -1.7127   -1.6108    1.2130 N.pl3     1 ACP        -0.6934
     23 C8         -2.5476   -1.0844    0.2632 C.ar      1 ACP         0.5422
     24 N7         -3.4391   -1.9591   -0.1536 N.2       1 ACP        -0.5596
     25 C5         -3.1701   -3.1016    0.5574 C.ar      1 ACP        -0.2259
     26 C6         -3.7593   -4.3620    0.5656 C.ar      1 ACP         0.7526
     27 N6         -4.8512   -4.6493   -0.2712 N.pl3     1 ACP        -0.9660
     28 N1         -3.2659   -5.3144    1.3932 N.ar      1 ACP        -0.8027
     29 C2         -2.2122   -4.9785    2.1759 C.ar      1 ACP         0.6758
     30 N3         -1.5595   -3.7985    2.2572 N.ar      1 ACP        -0.7221
     31 C4         -2.0986   -2.9054    1.4140 C.ar      1 ACP         0.5858
     32 HOG2       -3.3068    3.3325    0.7338 H         1 ACP         0.4705
     33 HOG3       -5.9495    3.1642   -0.9420 H         1 ACP         0.4705
     34 H3B1       -4.5961    6.7747   -0.5315 H         1 ACP         0.1189
     35 H3B2       -3.6814    6.5473    0.9559 H         1 ACP         0.1189
     36 HOA2        0.8376    2.9203   -1.2580 H         1 ACP         0.4679
     37 H5'1       -1.7775    2.7842    2.1389 H         1 ACP         0.0587
     38 H5'2       -1.1659    2.0534    0.6322 H         1 ACP         0.0587
     39 H4'         0.0402    1.7079    3.4342 H         1 ACP         0.0938
     40 H3'         1.5907    1.4859    1.1353 H         1 ACP         0.0597
     41 HO3'        2.6839   -0.1150    2.2479 H         1 ACP         0.4554
     42 H2'        -0.0017    0.0018    0.0005 H         1 ACP         0.0710
     43 HO2'        2.0953   -0.9375    0.0709 H         1 ACP         0.4360
     44 H1'        -0.1998   -1.6319    2.6178 H         1 ACP         0.1247
     45 H8         -2.4576   -0.0639   -0.0831 H         1 ACP         0.0875
     46 HN61       -5.2371   -3.9234   -0.8448 H         1 ACP         0.4433
     47 HN62       -5.2909   -5.5485   -0.2160 H         1 ACP         0.4433
     48 H2         -1.8433   -5.7650    2.8259 H         1 ACP         0.0459
@<TRIPOS>BOND
     1    1    2 2
     2    1    3 1
     3    1    4 1
     4    1    8 1
     5    3   32 1
     6    4   33 1
     7    5    6 2
     8    5    7 1
     9    5    8 1
    10    5   12 1
    11    8   34 1
    12    8   35 1
    13    9   10 2
    14    9   11 1
    15    9   12 1
    16    9   13 1
    17   11   36 1
    18   13   14 1
    19   14   15 1
    20   14   37 1
    21   14   38 1
    22   15   16 1
    23   15   17 1
    24   15   39 1
    25   16   21 1
    26   17   18 1
    27   17   19 1
    28   17   40 1
    29   18   41 1
    30   19   20 1
    31   19   21 1
    32   19   42 1
    33   20   43 1
    34   21   22 1
    35   21   44 1
    36   22   23 ar
    37   22   31 ar
    38   23   24 ar
    39   23   45 1
    40   24   25 ar
    41   25   26 ar
    42   25   31 ar
    43   26   27 1
    44   26   28 ar
    45   27   46 1
    46   27   47 1
    47   28   29 ar
    48   29   30 ar
    49   29   48 1
    50   30   31 ar
@<TRIPOS>SUBSTRUCTURE
     1 ACP         1 GROUP 0 A     ****
@<TRIPOS>MOLECULE
[[5-(6-aminopurin-9-yl)-3,4-dihydroxy-tetrahydrofuran-2-yl]methoxy-hydroxy-phosphoryl]oxy-(phosphonomethyl)phosphinate
   48    50     1     0     0
SMALL
USER_CHARGES

@<TRIPOS>ATOM
      1 PG         -5.2420    3.5638   -2.3240 P.3       1 ACP         1.6292
      2 O1G        -6.6522    4.0082   -2.0767 O.2       1 ACP        -0.8674
      3 O2G        -4.9647    2.9036   -3.7722 O.3       1 ACP        -0.7977
      4 O3G        -4.1207    4.7213   -2.2123 O.3       1 ACP        -0.7977
      5 PB         -4.5579    2.5876    0.6529 P.3       1 ACP         1.4910
      6 O1B        -4.0168    1.3218    1.2763 O.co2     1 ACP        -0.8292
      7 O2B        -5.8752    3.1950    1.0764 O.co2     1 ACP        -0.8292
      8 C3B        -4.6468    2.3041   -1.1728 C.3       1 ACP        -0.6453
      9 PA         -2.5920    4.4092    1.8816 P.3       1 ACP         1.7996
     10 O1A        -3.4579    5.1208    2.8804 O.2       1 ACP        -0.8588
     11 O2A        -1.5023    5.3543    1.1490 O.3       1 ACP        -0.8037
     12 O3A        -3.3985    3.7339    0.6531 O.3       1 ACP        -0.7988
     13 O5'        -1.7334    3.1724    2.4742 O.3       1 ACP        -0.5960
     14 C5'        -0.8811    2.4285    1.6206 C.3       1 ACP         0.1917
     15 C4'        -0.1994    1.3333    2.4288 C.3       1 ACP         0.0908
     16 O4'        -1.1285    0.2356    2.5840 O.3       1 ACP        -0.4111
     17 C3'         1.0324    0.7610    1.7344 C.3       1 ACP         0.0927
     18 O3'         1.9175    0.2377    2.7247 O.3       1 ACP        -0.6127
     19 C2'         0.4468   -0.3802    0.9263 C.3       1 ACP         0.1095
     20 O2'         1.3993   -1.3703    0.5961 O.3       1 ACP        -0.5953
     21 C1'        -0.6159   -0.9100    1.8769 C.3       1 ACP         0.4273
     22 N9         -1.7127   -1.6108    1.2130 N.pl3     1 ACP        -0.6934
     23 C8         -2.5476   -1.0844    0.2632 C.ar      1 ACP         0.5422
     24 N7         -3.4391   -1.9591   -0.1536 N.2       1 ACP        -0.5596
     25 C5         -3.1701   -3.1016    0.5574 C.ar      1 ACP        -0.2259
     26 C6         -3.7593   -4.3620    0.5656 C.ar      1 ACP         0.7526
     27 N6         -4.8512   -4.6493   -0.2712 N.pl3     1 ACP        -0.9660
     28 N1         -3.2659   -5.3144    1.3932 N.ar      1 ACP        -0.8027
     29 C2         -2.2122   -4.9785    2.1759 C.ar      1 ACP         0.6758
     30 N3         -1.5595   -3.7985    2.2572 N.ar      1 ACP        -0.7221
     31 C4         -2.0986   -2.9054    1.4140 C.ar      1 ACP         0.5858
     32 HOG2       -5.1318    3.4375   -4.5779 H         1 ACP         0.4705
     33 HOG3       -3.1800    4.4882   -2.3644 H         1 ACP         0.4705
     34 H3B1       -5.2790    1.4195   -1.3098 H         1 ACP         0.1189
     35 H3B2       -3.6342    2.0236   -1.4845 H         1 ACP         0.1189
     36 HOA2       -0.8312    5.8158    1.6955 H         1 ACP         0.4679
     37 H5'1       -1.4795    1.9921    0.8142 H         1 ACP         0.0587
     38 H5'2       -0.1362    3.1035    1.1868 H         1 ACP         0.0587
     39 H4'         0.0402    1.7079    3.4342 H         1 ACP         0.0938
     40 H3'         1.5907    1.4859    1.1353 H         1 ACP         0.0597
     41 HO3'        2.6839   -0.1150    2.2479 H         1 ACP         0.4554
     42 H2'        -0.0017    0.0018    0.0005 H         1 ACP         0.0710
     43 HO2'        2.0953   -0.9375    0.0709 H         1 ACP         0.4360
     44 H1'        -0.1998   -1.6319    2.6178 H         1 ACP         0.1247
     45 H8         -2.4576   -0.0639   -0.0831 H         1 ACP         0.0875
     46 HN61       -5.2371   -3.9234   -0.8448 H         1 ACP         0.4433
     47 HN62       -5.2909   -5.5485   -0.2160 H         1 ACP         0.4433
     48 H2         -1.8433   -5.7650    2.8259 H         1 ACP         0.0459
@<TRIPOS>BOND
     1    1    2 2
     2    1    3 1
     3    1    4 1
     4    1    8 1
     5    3   32 1
     6    4   33 1
     7    5    6 2
     8    5    7 1
     9    5    8 1
    10    5   12 1
    11    8   34 1
    12    8   35 1
    13    9   10 2
    14    9   11 1
    15    9   12 1
    16    9   13 1
    17   11   36 1
    18   13   14 1
    19   14   15 1
    20   14   37 1
    21   14   38 1
    22   15   16 1
    23   15   17 1
    24   15   39 1
    25   16   21 1
    26   17   18 1
    27   17   19 1
    28   17   40 1
    29   18   41 1
    30   19   20 1
    31   19   21 1
    32   19   42 1
    33   20   43 1
    34   21   22 1
    35   21   44 1
    36   22   23 ar
    37   22   31 ar
    38   23   24 ar
    39   23   45 1
    40   24   25 ar
    41   25   26 ar
    42   25   31 ar
    43   26   27 1
    44   26   28 ar
    45   27   46 1
    46   27   47 1
    47   28   29 ar
    48   29   30 ar
    49   29   48 1
    50   30   31 ar
@<TRIPOS>SUBSTRUCTURE
     1 ACP         1 GROUP 0 A     ****
@<TRIPOS>MOLECULE
[[5-(6-aminopurin-9-yl)-3,4-dihydroxy-tetrahydrofuran-2-yl]methoxy-hydroxy-phosphoryl]oxy-(phosphonomethyl)phosphinate
   48    50     1     0     0
SMALL
USER_CHARGES

@<TRIPOS>ATOM
      1 PG         -1.5278    5.3687    6.0068 P.3       1 ACP         1.6292
      2 O1G        -0.6044    6.5009    6.3429 O.2       1 ACP        -0.8674
      3 O2G        -0.8272    4.0738    5.3417 O.3       1 ACP        -0.7977
      4 O3G        -2.3556    4.7564    7.2516 O.3       1 ACP        -0.7977
      5 PB         -2.4515    6.3963    3.1130 P.3       1 ACP         1.4910
      6 O1B        -1.6491    7.6691    3.2529 O.co2     1 ACP        -0.8292
      7 O2B        -3.7406    6.3387    2.3266 O.co2     1 ACP        -0.8292
      8 C3B        -2.8245    5.7937    4.8216 C.3       1 ACP        -0.6453
      9 PA         -0.5525    5.0215    1.3253 P.3       1 ACP         1.7996
     10 O1A         0.4935    6.0854    1.1588 O.2       1 ACP        -0.8588
     11 O2A        -1.6302    4.9500    0.1208 O.3       1 ACP        -0.8037
     12 O3A        -1.4691    5.1810    2.6482 O.3       1 ACP        -0.7988
     13 O5'         0.0170    3.5129    1.4593 O.3       1 ACP        -0.5960
     14 C5'        -0.8811    2.4285    1.6206 C.3       1 ACP         0.1917
     15 C4'        -0.1994    1.3333    2.4288 C.3       1 ACP         0.0908
     16 O4'        -1.1285    0.2356    2.5840 O.3       1 ACP        -0.4111
     17 C3'         1.0324    0.7610    1.7344 C.3       1 ACP         0.0927
     18 O3'         1.9175    0.2377    2.7247 O.3       1 ACP        -0.6127
     19 C2'         0.4468   -0.3802    0.9263 C.3       1 ACP         0.1095
     20 O2'         1.3993   -1.3703    0.5961 O.3       1 ACP        -0.5953
     21 C1'        -0.6159   -0.9100    1.8769 C.3       1 ACP         0.4273
     22 N9         -1.7127   -1.6108    1.2130 N.pl3     1 ACP        -0.6934
     23 C8         -1.7712   -2.9546    0.9544 C.ar      1 ACP         0.5422
     24 N7         -2.8883   -3.2948    0.3462 N.2       1 ACP        -0.5596
     25 C5         -3.5834   -2.1202    0.2043 C.ar      1 ACP        -0.2259
     26 C6         -4.8225   -1.8251   -0.3554 C.ar      1 ACP         0.7526
     27 N6         -5.6154   -2.8394   -0.9189 N.pl3     1 ACP        -0.9660
     28 N1         -5.2589   -0.5425   -0.3507 N.ar      1 ACP        -0.8027
     29 C2         -4.4510    0.3913    0.2069 C.ar      1 ACP         0.6758
     30 N3         -3.2368    0.2296    0.7767 N.ar      1 ACP        -0.7221
     31 C4         -2.8684   -1.0596    0.7376 C.ar      1 ACP         0.5858
     32 HOG2       -0.3476    4.1765    4.4922 H         1 ACP         0.4705
     33 HOG3       -1.8623    4.3727    8.0077 H         1 ACP         0.4705
     34 H3B1       -3.4501    4.9027    4.6969 H         1 ACP         0.1189
     35 H3B2       -3.4541    6.5633    5.2826 H         1 ACP         0.1189
     36 HOA2       -2.1821    5.7384   -0.0690 H         1 ACP         0.4679
     37 H5'1       -1.7775    2.7842    2.1389 H         1 ACP         0.0587
     38 H5'2       -1.1659    2.0534    0.6322 H         1 ACP         0.0587
     39 H4'         0.0402    1.7079    3.4342 H         1 ACP         0.0938
     40 H3'         1.5907    1.4859    1.1353 H         1 ACP         0.0597
     41 HO3'        2.6839   -0.1150    2.2479 H         1 ACP         0.4554
     42 H2'        -0.0017    0.0018    0.0005 H         1 ACP         0.0710
     43 HO2'        2.0953   -0.9375    0.0709 H         1 ACP         0.4360
     44 H1'        -0.1998   -1.6319    2.6178 H         1 ACP         0.1247
     45 H8         -0.9745   -3.6312    1.2318 H         1 ACP         0.0875
     46 HN61       -5.2619   -3.7766   -0.9586 H         1 ACP         0.4433
     47 HN62       -6.4834   -2.5990   -1.3590 H         1 ACP         0.4433
     48 H2         -4.8317    1.4071    0.1930 H         1 ACP         0.0459
@<TRIPOS>BOND
     1    1    2 2
     2    1    3 1
     3    1    4 1
     4    1    8 1
     5    3   32 1
     6    4   33 1
     7    5    6 2
     8    5    7 1
     9    5    8 1
    10    5   12 1
    11    8   34 1
    12    8   35 1
    13    9   10 2
    14    9   11 1
    15    9   12 1
    16    9   13 1
    17   11   36 1
    18   13   14 1
    19   14   15 1
    20   14   37 1
    21   14   38 1
    22   15   16 1
    23   15   17 1
    24   15   39 1
    25   16   21 1
    26   17   18 1
    27   17   19 1
    28   17   40 1
    29   18   41 1
    30   19   20 1
    31   19   21 1
    32   19   42 1
    33   20   43 1
    34   21   22 1
    35   21   44 1
    36   22   23 ar
    37   22   31 ar
    38   23   24 ar
    39   23   45 1
    40   24   25 ar
    41   25   26 ar
    42   25   31 ar
    43   26   27 1
    44   26   28 ar
    45   27   46 1
    46   27   47 1
    47   28   29 ar
    48   29   30 ar
    49   29   48 1
    50   30   31 ar
@<TRIPOS>SUBSTRUCTURE
     1 ACP         1 GROUP 0 A     ****
@<TRIPOS>MOLECULE
[[5-(6-aminopurin-9-yl)-3,4-dihydroxy-tetrahydrofuran-2-yl]methoxy-hydroxy-phosphoryl]oxy-(phosphonomethyl)phosphinate
   48    50     1     0     0
SMALL
USER_CHARGES

@<TRIPOS>ATOM
      1 PG          2.0271    5.2241   -1.8477 P.3       1 ACP         1.6292
      2 O1G         2.1534    3.9212   -1.1171 O.2       1 ACP        -0.8674
      3 O2G         3.2337    6.2726   -1.6135 O.3       1 ACP        -0.7977
      4 O3G         1.9285    5.1103   -3.4561 O.3       1 ACP        -0.7977
      5 PB         -1.1591    5.5315   -1.6552 P.3       1 ACP         1.4910
      6 O1B        -1.3263    5.2482   -3.1302 O.co2     1 ACP        -0.8292
      7 O2B        -2.0946    6.4463   -0.8994 O.co2     1 ACP        -0.8292
      8 C3B         0.5562    6.1804   -1.4135 C.3       1 ACP        -0.6453
      9 PA         -1.9903    2.8601   -0.7251 P.3       1 ACP         1.7996
     10 O1A        -2.3239    2.2013   -2.0321 O.2       1 ACP        -0.8588
     11 O2A        -3.2682    3.4570    0.0674 O.3       1 ACP        -0.8037
     12 O3A        -0.9912    4.1261   -0.8460 O.3       1 ACP        -0.7988
     13 O5'        -1.2435    1.9111    0.3519 O.3       1 ACP        -0.5960
     14 C5'        -0.8811    2.4285    1.6206 C.3       1 ACP         0.1917
     15 C4'        -0.1994    1.3333    2.4288 C.3       1 ACP         0.0908
     16 O4'        -1.1285    0.2356    2.5840 O.3       1 ACP        -0.4111
     17 C3'         1.0324    0.7610    1.7344 C.3       1 ACP         0.0927
     18 O3'         1.9175    0.2377    2.7247 O.3       1 ACP        -0.6127
     19 C2'         0.4468   -0.3802    0.9263 C.3       1 ACP         0.1095
     20 O2'         1.3993   -1.3703    0.5961 O.3       1 ACP        -0.5953
     21 C1'        -0.6159   -0.9100    1.8769 C.3       1 ACP         0.4273
     22 N9         -1.7127   -1.6108    1.2130 N.pl3     1 ACP        -0.6934
     23 C8         -2.8641   -1.0399    0.7392 C.ar      1 ACP         0.5422
     24 N7         -3.6659   -1.9257    0.1858 N.2       1 ACP        -0.5596
     25 C5         -3.0053   -3.1223    0.3069 C.ar      1 ACP        -0.2259
     26 C6         -3.3321   -4.4178   -0.0813 C.ar      1 ACP         0.7526
     27 N6         -4.5476   -4.6866   -0.7335 N.pl3     1 ACP        -0.9660
     28 N1         -2.4608   -5.4225    0.1773 N.ar      1 ACP        -0.8027
     29 C2         -1.3053   -5.1020    0.8081 C.ar      1 ACP         0.6758
     30 N3         -0.8788   -3.8921    1.2315 N.ar      1 ACP        -0.7221
     31 C4         -1.7870   -2.9477    0.9438 C.ar      1 ACP         0.5858
     32 HOG2        4.1457    6.0113   -1.8627 H         1 ACP         0.4705
     33 HOG3        1.8443    5.9312   -3.9865 H         1 ACP         0.4705
     34 H3B1        0.6371    6.4285   -0.3492 H         1 ACP         0.1189
     35 H3B2        0.6019    7.1260   -1.9657 H         1 ACP         0.1189
     36 HOA2       -3.9880    2.8465    0.3345 H         1 ACP         0.4679
     37 H5'1       -0.2031    3.2762    1.4777 H         1 ACP         0.0587
     38 H5'2       -1.7839    2.7764    2.1331 H         1 ACP         0.0587
     39 H4'         0.0402    1.7079    3.4342 H         1 ACP         0.0938
     40 H3'         1.5907    1.4859    1.1353 H         1 ACP         0.0597
     41 HO3'        2.6839   -0.1150    2.2479 H         1 ACP         0.4554
     42 H2'        -0.0017    0.0018    0.0005 H         1 ACP         0.0710
     43 HO2'        2.0953   -0.9375    0.0709 H         1 ACP         0.4360
     44 H1'        -0.1998   -1.6319    2.6178 H         1 ACP         0.1247
     45 H8         -3.0609    0.0200    0.8250 H         1 ACP         0.0875
     46 HN61       -5.2046   -3.9433   -0.8775 H         1 ACP         0.4433
     47 HN62       -4.7849   -5.6332   -0.9625 H         1 ACP         0.4433
     48 H2         -0.6318   -5.9307    0.9993 H         1 ACP         0.0459
@<TRIPOS>BOND
     1    1    2 2
     2    1    3 1
     3    1    4 1
     4    1    8 1
     5    3   32 1
     6    4   33 1
     7    5    6 2
     8    5    7 1
     9    5    8 1
    10    5   12 1
    11    8   34 1
    12    8   35 1
    13    9   10 2
    14    9   11 1
    15    9   12 1
    16    9   13 1
    17   11   36 1
    18   13   14 1
    19   14   15 1
    20   14   37 1
    21   14   38 1
    22   15   16 1
    23   15   17 1
    24   15   39 1
    25   16   21 1
    26   17   18 1
    27   17   19 1
    28   17   40 1
    29   18   41 1
    30   19   20 1
    31   19   21 1
    32   19   42 1
    33   20   43 1
    34   21   22 1
    35   21   44 1
    36   22   23 ar
    37   22   31 ar
    38   23   24 ar
    39   23   45 1
    40   24   25 ar
    41   25   26 ar
    42   25   31 ar
    43   26   27 1
    44   26   28 ar
    45   27   46 1
    46   27   47 1
    47   28   29 ar
    48   29   30 ar
    49   29   48 1
    50   30   31 ar
@<TRIPOS>SUBSTRUCTURE
     1 ACP         1 GROUP 0 A     ****
@<TRIPOS>MOLECULE
[[5-(6-aminopurin-9-yl)-3,4-dihydroxy-tetrahydrofuran-2-yl]methoxy-hydroxy-phosphoryl]oxy-(phosphonomethyl)phosphinate
   48    50     1     0     0
SMALL
USER_CHARGES

@<TRIPOS>ATOM
      1 PG          0.7016    6.5230    0.7996 P.3       1 ACP         1.6292
      2 O1G        -0.6960    6.4035    1.3288 O.2       1 ACP        -0.8674
      3 O2G         1.3068    8.0206    0.7659 O.3       1 ACP        -0.7977
      4 O3G         1.8210    5.6781    1.6013 O.3       1 ACP        -0.7977
      5 PB          0.5298    4.2205   -1.4255 P.3       1 ACP         1.4910
      6 O1B         1.4326    3.3099   -0.6258 O.co2     1 ACP        -0.8292
      7 O2B         0.5016    4.2028   -2.9363 O.co2     1 ACP        -0.8292
      8 C3B         0.9023    5.9558   -0.9046 C.3       1 ACP        -0.6453
      9 PA         -1.9903    2.8601   -0.7251 P.3       1 ACP         1.7996
     10 O1A        -2.3239    2.2013   -2.0321 O.2       1 ACP        -0.8588
     11 O2A        -3.2682    3.4570    0.0674 O.3       1 ACP        -0.8037
     12 O3A        -0.9912    4.1261   -0.8460 O.3       1 ACP        -0.7988
     13 O5'        -1.2435    1.9111    0.3519 O.3       1 ACP        -0.5960
     14 C5'        -0.8811    2.4285    1.6206 C.3       1 ACP         0.1917
     15 C4'        -0.1994    1.3333    2.4288 C.3       1 ACP         0.0908
     16 O4'        -1.1285    0.2356    2.5840 O.3       1 ACP        -0.4111
     17 C3'         1.0324    0.7610    1.7344 C.3       1 ACP         0.0927
     18 O3'         1.9175    0.2377    2.7247 O.3       1 ACP        -0.6127
     19 C2'         0.4468   -0.3802    0.9263 C.3       1 ACP         0.1095
     20 O2'         1.3993   -1.3703    0.5961 O.3       1 ACP        -0.5953
     21 C1'        -0.6159   -0.9100    1.8769 C.3       1 ACP         0.4273
     22 N9         -1.7127   -1.6108    1.2130 N.pl3     1 ACP        -0.6934
     23 C8         -2.8641   -1.0399    0.7392 C.ar      1 ACP         0.5422
     24 N7         -3.6659   -1.9257    0.1858 N.2       1 ACP        -0.5596
     25 C5         -3.0053   -3.1223    0.3069 C.ar      1 ACP        -0.2259
     26 C6         -3.3321   -4.4178   -0.0813 C.ar      1 ACP         0.7526
     27 N6         -4.5476   -4.6866   -0.7335 N.pl3     1 ACP        -0.9660
     28 N1         -2.4608   -5.4225    0.1773 N.ar      1 ACP        -0.8027
     29 C2         -1.3053   -5.1020    0.8081 C.ar      1 ACP         0.6758
     30 N3         -0.8788   -3.8921    1.2315 N.ar      1 ACP        -0.7221
     31 C4         -1.7870   -2.9477    0.9438 C.ar      1 ACP         0.5858
     32 HOG2        2.2178    8.1577    0.4290 H         1 ACP         0.4705
     33 HOG3        1.9682    5.8668    2.5526 H         1 ACP         0.4705
     34 H3B1        0.2768    6.5998   -1.5331 H         1 ACP         0.1189
     35 H3B2        1.9429    6.1413   -1.1942 H         1 ACP         0.1189
     36 HOA2       -3.9880    2.8465    0.3345 H         1 ACP         0.4679
     37 H5'1       -0.2031    3.2762    1.4777 H         1 ACP         0.0587
     38 H5'2       -1.7839    2.7764    2.1331 H         1 ACP         0.0587
     39 H4'         0.0402    1.7079    3.4342 H         1 ACP         0.0938
     40 H3'         1.5907    1.4859    1.1353 H         1 ACP         0.0597
     41 HO3'        2.6839   -0.1150    2.2479 H         1 ACP         0.4554
     42 H2'        -0.0017    0.0018    0.0005 H         1 ACP         0.0710
     43 HO2'        2.0953   -0.9375    0.0709 H         1 ACP         0.4360
     44 H1'        -0.1998   -1.6319    2.6178 H         1 ACP         0.1247
     45 H8         -3.0609    0.0200    0.8250 H         1 ACP         0.0875
     46 HN61       -5.2046   -3.9433   -0.8775 H         1 ACP         0.4433
     47 HN62       -4.7849   -5.6332   -0.9625 H         1 ACP         0.4433
     48 H2         -0.6318   -5.9307    0.9993 H         1 ACP         0.0459
@<TRIPOS>BOND
     1    1    2 2
     2    1    3 1
     3    1    4 1
     4    1    8 1
     5    3   32 1
     6    4   33 1
     7    5    6 2
     8    5    7 1
     9    5    8 1
    10    5   12 1
    11    8   34 1
    12    8   35 1
    13    9   10 2
    14    9   11 1
    15    9   12 1
    16    9   13 1
    17   11   36 1
    18   13   14 1
    19   14   15 1
    20   14   37 1
    21   14   38 1
    22   15   16 1
    23   15   17 1
    24   15   39 1
    25   16   21 1
    26   17   18 1
    27   17   19 1
    28   17   40 1
    29   18   41 1
    30   19   20 1
    31   19   21 1
    32   19   42 1
    33   20   43 1
    34   21   22 1
    35   21   44 1
    36   22   23 ar
    37   22   31 ar
    38   23   24 ar
    39   23   45 1
    40   24   25 ar
    41   25   26 ar
    42   25   31 ar
    43   26   27 1
    44   26   28 ar
    45   27   46 1
    46   27   47 1
    47   28   29 ar
    48   29   30 ar
    49   29   48 1
    50   30   31 ar
@<TRIPOS>SUBSTRUCTURE
     1 ACP         1 GROUP 0 A     ****
@<TRIPOS>MOLECULE
[[5-(6-aminopurin-9-yl)-3,4-dihydroxy-tetrahydrofuran-2-yl]methoxy-hydroxy-phosphoryl]oxy-(phosphonomethyl)phosphinate
   48    50     1     0     0
SMALL
USER_CHARGES

@<TRIPOS>ATOM
      1 PG         -4.7138    6.1140    1.4490 P.3       1 ACP         1.6292
      2 O1G        -4.0256    5.3025    2.5051 O.2       1 ACP        -0.8674
      3 O2G        -6.3217    5.9664    1.3961 O.3       1 ACP        -0.7977
      4 O3G        -4.4808    7.7100    1.5394 O.3       1 ACP        -0.7977
      5 PB         -2.4565    5.8938   -0.8180 P.3       1 ACP         1.4910
      6 O1B        -2.0704    7.3446   -0.6458 O.co2     1 ACP        -0.8292
      7 O2B        -2.3523    5.1846   -2.1483 O.co2     1 ACP        -0.8292
      8 C3B        -4.2051    5.7205   -0.2401 C.3       1 ACP        -0.6453
      9 PA         -0.1733    4.7801    0.6785 P.3       1 ACP         1.7996
     10 O1A         0.5701    6.0367    1.0281 O.2       1 ACP        -0.8588
     11 O2A         0.3946    4.0088   -0.6253 O.3       1 ACP        -0.8037
     12 O3A        -1.7399    4.9978    0.3404 O.3       1 ACP        -0.7988
     13 O5'        -0.2069    3.6554    1.8412 O.3       1 ACP        -0.5960
     14 C5'        -0.8811    2.4285    1.6206 C.3       1 ACP         0.1917
     15 C4'        -0.1994    1.3333    2.4288 C.3       1 ACP         0.0908
     16 O4'        -1.1285    0.2356    2.5840 O.3       1 ACP        -0.4111
     17 C3'         1.0324    0.7610    1.7344 C.3       1 ACP         0.0927
     18 O3'         1.9175    0.2377    2.7247 O.3       1 ACP        -0.6127
     19 C2'         0.4468   -0.3802    0.9263 C.3       1 ACP         0.1095
     20 O2'         1.3993   -1.3703    0.5961 O.3       1 ACP        -0.5953
     21 C1'        -0.6159   -0.9100    1.8769 C.3       1 ACP         0.4273
     22 N9         -1.7127   -1.6108    1.2130 N.pl3     1 ACP        -0.6934
     23 C8         -1.7712   -2.9546    0.9544 C.ar      1 ACP         0.5422
     24 N7         -2.8883   -3.2948    0.3462 N.2       1 ACP        -0.5596
     25 C5         -3.5834   -2.1202    0.2043 C.ar      1 ACP        -0.2259
     26 C6         -4.8225   -1.8251   -0.3554 C.ar      1 ACP         0.7526
     27 N6         -5.6154   -2.8394   -0.9189 N.pl3     1 ACP        -0.9660
     28 N1         -5.2589   -0.5425   -0.3507 N.ar      1 ACP        -0.8027
     29 C2         -4.4510    0.3913    0.2069 C.ar      1 ACP         0.6758
     30 N3         -3.2368    0.2296    0.7767 N.ar      1 ACP        -0.7221
     31 C4         -2.8684   -1.0596    0.7376 C.ar      1 ACP         0.5858
     32 HOG2       -6.8479    6.2119    2.1867 H         1 ACP         0.4705
     33 HOG3       -4.9071    8.2911    0.8739 H         1 ACP         0.4705
     34 H3B1       -4.4807    4.6758   -0.4232 H         1 ACP         0.1189
     35 H3B2       -4.8095    6.3333   -0.9184 H         1 ACP         0.1189
     36 HOA2        1.3229    3.6919   -0.6217 H         1 ACP         0.4679
     37 H5'1       -1.9259    2.5372    1.9293 H         1 ACP         0.0587
     38 H5'2       -0.8477    2.1923    0.5521 H         1 ACP         0.0587
     39 H4'         0.0402    1.7079    3.4342 H         1 ACP         0.0938
     40 H3'         1.5907    1.4859    1.1353 H         1 ACP         0.0597
     41 HO3'        2.6839   -0.1150    2.2479 H         1 ACP         0.4554
     42 H2'        -0.0017    0.0018    0.0005 H         1 ACP         0.0710
     43 HO2'        0.9369   -2.0558    0.0825 H         1 ACP         0.4360
     44 H1'        -0.1998   -1.6319    2.6178 H         1 ACP         0.1247
     45 H8         -0.9745   -3.6312    1.2318 H         1 ACP         0.0875
     46 HN61       -5.2619   -3.7766   -0.9586 H         1 ACP         0.4433
     47 HN62       -6.4834   -2.5990   -1.3590 H         1 ACP         0.4433
     48 H2         -4.8317    1.4071    0.1930 H         1 ACP         0.0459
@<TRIPOS>BOND
     1    1    2 2
     2    1    3 1
     3    1    4 1
     4    1    8 1
     5    3   32 1
     6    4   33 1
     7    5    6 2
     8    5    7 1
     9    5    8 1
    10    5   12 1
    11    8   34 1
    12    8   35 1
    13    9   10 2
    14    9   11 1
    15    9   12 1
    16    9   13 1
    17   11   36 1
    18   13   14 1
    19   14   15 1
    20   14   37 1
    21   14   38 1
    22   15   16 1
    23   15   17 1
    24   15   39 1
    25   16   21 1
    26   17   18 1
    27   17   19 1
    28   17   40 1
    29   18   41 1
    30   19   20 1
    31   19   21 1
    32   19   42 1
    33   20   43 1
    34   21   22 1
    35   21   44 1
    36   22   23 ar
    37   22   31 ar
    38   23   24 ar
    39   23   45 1
    40   24   25 ar
    41   25   26 ar
    42   25   31 ar
    43   26   27 1
    44   26   28 ar
    45   27   46 1
    46   27   47 1
    47   28   29 ar
    48   29   30 ar
    49   29   48 1
    50   30   31 ar
@<TRIPOS>SUBSTRUCTURE
     1 ACP         1 GROUP 0 A     ****
@<TRIPOS>MOLECULE
[[5-(6-aminopurin-9-yl)-3,4-dihydroxy-tetrahydrofuran-2-yl]methoxy-hydroxy-phosphoryl]oxy-(phosphonomethyl)phosphinate
   48    50     1     0     0
SMALL
USER_CHARGES

@<TRIPOS>ATOM
      1 PG         -4.7138    6.1140    1.4490 P.3       1 ACP         1.6292
      2 O1G        -4.0256    5.3025    2.5051 O.2       1 ACP        -0.8674
      3 O2G        -6.3217    5.9664    1.3961 O.3       1 ACP        -0.7977
      4 O3G        -4.4808    7.7100    1.5394 O.3       1 ACP        -0.7977
      5 PB         -2.4565    5.8938   -0.8180 P.3       1 ACP         1.4910
      6 O1B        -2.0704    7.3446   -0.6458 O.co2     1 ACP        -0.8292
      7 O2B        -2.3523    5.1846   -2.1483 O.co2     1 ACP        -0.8292
      8 C3B        -4.2051    5.7205   -0.2401 C.3       1 ACP        -0.6453
      9 PA         -0.1733    4.7801    0.6785 P.3       1 ACP         1.7996
     10 O1A         0.5701    6.0367    1.0281 O.2       1 ACP        -0.8588
     11 O2A         0.3946    4.0088   -0.6253 O.3       1 ACP        -0.8037
     12 O3A        -1.7399    4.9978    0.3404 O.3       1 ACP        -0.7988
     13 O5'        -0.2069    3.6554    1.8412 O.3       1 ACP        -0.5960
     14 C5'        -0.8811    2.4285    1.6206 C.3       1 ACP         0.1917
     15 C4'        -0.1994    1.3333    2.4288 C.3       1 ACP         0.0908
     16 O4'        -1.1285    0.2356    2.5840 O.3       1 ACP        -0.4111
     17 C3'         1.0324    0.7610    1.7344 C.3       1 ACP         0.0927
     18 O3'         1.9175    0.2377    2.7247 O.3       1 ACP        -0.6127
     19 C2'         0.4468   -0.3802    0.9263 C.3       1 ACP         0.1095
     20 O2'         1.3993   -1.3703    0.5961 O.3       1 ACP        -0.5953
     21 C1'        -0.6159   -0.9100    1.8769 C.3       1 ACP         0.4273
     22 N9         -1.7127   -1.6108    1.2130 N.pl3     1 ACP        -0.6934
     23 C8         -2.8641   -1.0399    0.7392 C.ar      1 ACP         0.5422
     24 N7         -3.6659   -1.9257    0.1858 N.2       1 ACP        -0.5596
     25 C5         -3.0053   -3.1223    0.3069 C.ar      1 ACP        -0.2259
     26 C6         -3.3321   -4.4178   -0.0813 C.ar      1 ACP         0.7526
     27 N6         -4.5476   -4.6866   -0.7335 N.pl3     1 ACP        -0.9660
     28 N1         -2.4608   -5.4225    0.1773 N.ar      1 ACP        -0.8027
     29 C2         -1.3053   -5.1020    0.8081 C.ar      1 ACP         0.6758
     30 N3         -0.8788   -3.8921    1.2315 N.ar      1 ACP        -0.7221
     31 C4         -1.7870   -2.9477    0.9438 C.ar      1 ACP         0.5858
     32 HOG2       -6.8239    6.4749    0.7242 H         1 ACP         0.4705
     33 HOG3       -4.7623    8.1864    2.3494 H         1 ACP         0.4705
     34 H3B1       -4.4807    4.6758   -0.4232 H         1 ACP         0.1189
     35 H3B2       -4.8095    6.3333   -0.9184 H         1 ACP         0.1189
     36 HOA2        1.3229    3.6919   -0.6217 H         1 ACP         0.4679
     37 H5'1       -1.9259    2.5372    1.9293 H         1 ACP         0.0587
     38 H5'2       -0.8477    2.1923    0.5521 H         1 ACP         0.0587
     39 H4'         0.0402    1.7079    3.4342 H         1 ACP         0.0938
     40 H3'         1.5907    1.4859    1.1353 H         1 ACP         0.0597
     41 HO3'        2.6839   -0.1150    2.2479 H         1 ACP         0.4554
     42 H2'        -0.0017    0.0018    0.0005 H         1 ACP         0.0710
     43 HO2'        0.9369   -2.0558    0.0825 H         1 ACP         0.4360
     44 H1'        -0.1998   -1.6319    2.6178 H         1 ACP         0.1247
     45 H8         -3.0609    0.0200    0.8250 H         1 ACP         0.0875
     46 HN61       -5.2046   -3.9433   -0.8775 H         1 ACP         0.4433
     47 HN62       -4.7849   -5.6332   -0.9625 H         1 ACP         0.4433
     48 H2         -0.6318   -5.9307    0.9993 H         1 ACP         0.0459
@<TRIPOS>BOND
     1    1    2 2
     2    1    3 1
     3    1    4 1
     4    1    8 1
     5    3   32 1
     6    4   33 1
     7    5    6 2
     8    5    7 1
     9    5    8 1
    10    5   12 1
    11    8   34 1
    12    8   35 1
    13    9   10 2
    14    9   11 1
    15    9   12 1
    16    9   13 1
    17   11   36 1
    18   13   14 1
    19   14   15 1
    20   14   37 1
    21   14   38 1
    22   15   16 1
    23   15   17 1
    24   15   39 1
    25   16   21 1
    26   17   18 1
    27   17   19 1
    28   17   40 1
    29   18   41 1
    30   19   20 1
    31   19   21 1
    32   19   42 1
    33   20   43 1
    34   21   22 1
    35   21   44 1
    36   22   23 ar
    37   22   31 ar
    38   23   24 ar
    39   23   45 1
    40   24   25 ar
    41   25   26 ar
    42   25   31 ar
    43   26   27 1
    44   26   28 ar
    45   27   46 1
    46   27   47 1
    47   28   29 ar
    48   29   30 ar
    49   29   48 1
    50   30   31 ar
@<TRIPOS>SUBSTRUCTURE
     1 ACP         1 GROUP 0 A     ****
@<TRIPOS>MOLECULE
[[5-(6-aminopurin-9-yl)-3,4-dihydroxy-tetrahydrofuran-2-yl]methoxy-hydroxy-phosphoryl]oxy-(phosphonomethyl)phosphinate
   48    50     1     0     0
SMALL
USER_CHARGES

@<TRIPOS>ATOM
      1 PG         -2.7770    1.8992   -2.8843 P.3       1 ACP         1.6292
      2 O1G        -1.9909    2.8063   -3.7825 O.2       1 ACP        -0.8674
      3 O2G        -3.3834    0.5778   -3.5886 O.3       1 ACP        -0.7977
      4 O3G        -1.9715    1.3163   -1.6110 O.3       1 ACP        -0.7977
      5 PB         -4.1077    4.1548   -1.0338 P.3       1 ACP         1.4910
      6 O1B        -5.5127    4.5073   -0.6032 O.co2     1 ACP        -0.8292
      7 O2B        -3.2022    5.1499   -1.7217 O.co2     1 ACP        -0.8292
      8 C3B        -4.2278    2.6719   -2.1328 C.3       1 ACP        -0.6453
      9 PA         -2.9682    4.0282    1.6825 P.3       1 ACP         1.7996
     10 O1A        -4.1668    4.4027    2.5051 O.2       1 ACP        -0.8588
     11 O2A        -1.9512    5.2515    1.3883 O.3       1 ACP        -0.8037
     12 O3A        -3.3154    3.4582    0.2093 O.3       1 ACP        -0.7988
     13 O5'        -2.0397    2.8622    2.3121 O.3       1 ACP        -0.5960
     14 C5'        -0.8811    2.4285    1.6206 C.3       1 ACP         0.1917
     15 C4'        -0.1994    1.3333    2.4288 C.3       1 ACP         0.0908
     16 O4'        -1.1285    0.2356    2.5840 O.3       1 ACP        -0.4111
     17 C3'         1.0324    0.7610    1.7344 C.3       1 ACP         0.0927
     18 O3'         1.9175    0.2377    2.7247 O.3       1 ACP        -0.6127
     19 C2'         0.4468   -0.3802    0.9263 C.3       1 ACP         0.1095
     20 O2'         1.3993   -1.3703    0.5961 O.3       1 ACP        -0.5953
     21 C1'        -0.6159   -0.9100    1.8769 C.3       1 ACP         0.4273
     22 N9         -1.7127   -1.6108    1.2130 N.pl3     1 ACP        -0.6934
     23 C8         -1.6230   -2.3308    0.0513 C.ar      1 ACP         0.5422
     24 N7         -2.7800   -2.8517   -0.3004 N.2       1 ACP        -0.5596
     25 C5         -3.6574   -2.4511    0.6758 C.ar      1 ACP        -0.2259
     26 C6         -5.0170   -2.6775    0.8654 C.ar      1 ACP         0.7526
     27 N6         -5.7504   -3.4510   -0.0504 N.pl3     1 ACP        -0.9660
     28 N1         -5.6292   -2.1415    1.9486 N.ar      1 ACP        -0.8027
     29 C2         -4.8703   -1.4055    2.7961 C.ar      1 ACP         0.6758
     30 N3         -3.5527   -1.1170    2.7199 N.ar      1 ACP        -0.7221
     31 C4         -3.0124   -1.6774    1.6275 C.ar      1 ACP         0.5858
     32 HOG2       -2.7688   -0.0642   -4.0037 H         1 ACP         0.4705
     33 HOG3       -2.4359    0.7171   -0.9884 H         1 ACP         0.4705
     34 H3B1       -4.8996    2.9566   -2.9505 H         1 ACP         0.1189
     35 H3B2       -4.7456    1.9034   -1.5477 H         1 ACP         0.1189
     36 HOA2       -2.2826    6.0375    0.9040 H         1 ACP         0.4679
     37 H5'1       -1.1760    2.0499    0.6365 H         1 ACP         0.0587
     38 H5'2       -0.2073    3.2811    1.4873 H         1 ACP         0.0587
     39 H4'         0.0402    1.7079    3.4342 H         1 ACP         0.0938
     40 H3'         1.5907    1.4859    1.1353 H         1 ACP         0.0597
     41 HO3'        2.6839   -0.1150    2.2479 H         1 ACP         0.4554
     42 H2'        -0.0017    0.0018    0.0005 H         1 ACP         0.0710
     43 HO2'        2.0953   -0.9375    0.0709 H         1 ACP         0.4360
     44 H1'        -0.1998   -1.6319    2.6178 H         1 ACP         0.1247
     45 H8         -0.6932   -2.4401   -0.4900 H         1 ACP         0.0875
     46 HN61       -5.2972   -3.8032   -0.8723 H         1 ACP         0.4433
     47 HN62       -6.7381   -3.5629    0.0791 H         1 ACP         0.4433
     48 H2         -5.3929   -0.9917    3.6520 H         1 ACP         0.0459
@<TRIPOS>BOND
     1    1    2 2
     2    1    3 1
     3    1    4 1
     4    1    8 1
     5    3   32 1
     6    4   33 1
     7    5    6 2
     8    5    7 1
     9    5    8 1
    10    5   12 1
    11    8   34 1
    12    8   35 1
    13    9   10 2
    14    9   11 1
    15    9   12 1
    16    9   13 1
    17   11   36 1
    18   13   14 1
    19   14   15 1
    20   14   37 1
    21   14   38 1
    22   15   16 1
    23   15   17 1
    24   15   39 1
    25   16   21 1
    26   17   18 1
    27   17   19 1
    28   17   40 1
    29   18   41 1
    30   19   20 1
    31   19   21 1
    32   19   42 1
    33   20   43 1
    34   21   22 1
    35   21   44 1
    36   22   23 ar
    37   22   31 ar
    38   23   24 ar
    39   23   45 1
    40   24   25 ar
    41   25   26 ar
    42   25   31 ar
    43   26   27 1
    44   26   28 ar
    45   27   46 1
    46   27   47 1
    47   28   29 ar
    48   29   30 ar
    49   29   48 1
    50   30   31 ar
@<TRIPOS>SUBSTRUCTURE
     1 ACP         1 GROUP 0 A     ****
@<TRIPOS>MOLECULE
[[5-(6-aminopurin-9-yl)-3,4-dihydroxy-tetrahydrofuran-2-yl]methoxy-hydroxy-phosphoryl]oxy-(phosphonomethyl)phosphinate
   48    50     1     0     0
SMALL
USER_CHARGES

@<TRIPOS>ATOM
      1 PG         -4.1196   -1.9236   -3.8241 P.3       1 ACP         1.6292
      2 O1G        -5.3449   -1.6047   -4.6268 O.2       1 ACP        -0.8674
      3 O2G        -3.7520   -0.8607   -2.6643 O.3       1 ACP        -0.7977
      4 O3G        -4.1489   -3.3397   -3.0472 O.3       1 ACP        -0.7977
      5 PB         -1.9530   -0.5917   -5.7772 P.3       1 ACP         1.4910
      6 O1B        -3.0143   -0.2289   -6.7900 O.co2     1 ACP        -0.8292
      7 O2B        -0.5363   -0.9293   -6.1804 O.co2     1 ACP        -0.8292
      8 C3B        -2.5987   -2.0204   -4.7956 C.3       1 ACP        -0.6453
      9 PA         -1.6646    2.1132   -4.6402 P.3       1 ACP         1.7996
     10 O1A        -2.6285    2.8802   -5.4982 O.2       1 ACP        -0.8588
     11 O2A        -0.1202    2.2215   -5.1097 O.3       1 ACP        -0.8037
     12 O3A        -1.9353    0.5196   -4.5844 O.3       1 ACP        -0.7988
     13 O5'        -1.6512    2.5329   -3.0776 O.3       1 ACP        -0.5960
     14 C5'        -0.7794    1.8744   -2.1748 C.3       1 ACP         0.1917
     15 C4'        -0.9699    2.4597   -0.7819 C.3       1 ACP         0.0908
     16 O4'        -2.1475    1.8640   -0.2014 O.3       1 ACP        -0.4111
     17 C3'         0.1697    2.1347    0.1695 C.3       1 ACP         0.0927
     18 O3'         0.1809    3.0982    1.2223 O.3       1 ACP        -0.6127
     19 C2'        -0.2543    0.7880    0.7187 C.3       1 ACP         0.1095
     20 O2'         0.3606    0.4944    1.9582 O.3       1 ACP        -0.5953
     21 C1'        -1.7682    0.9516    0.8548 C.3       1 ACP         0.4273
     22 N9         -2.5926   -0.2553    0.7436 N.pl3     1 ACP        -0.6934
     23 C8         -2.2879   -1.3752    0.0161 C.ar      1 ACP         0.5422
     24 N7         -3.2214   -2.2987    0.1123 N.2       1 ACP        -0.5596
     25 C5         -4.1723   -1.7531    0.9377 C.ar      1 ACP        -0.2259
     26 C6         -5.3870   -2.2342    1.4159 C.ar      1 ACP         0.7526
     27 N6         -5.8433   -3.5142    1.0574 N.pl3     1 ACP        -0.9660
     28 N1         -6.1289   -1.4512    2.2356 N.ar      1 ACP        -0.8027
     29 C2         -5.6370   -0.2275    2.5461 C.ar      1 ACP         0.6758
     30 N3         -4.4810    0.3469    2.1476 N.ar      1 ACP        -0.7221
     31 C4         -3.7996   -0.4810    1.3417 C.ar      1 ACP         0.5858
     32 HOG2       -3.5700    0.0705   -2.9132 H         1 ACP         0.4705
     33 HOG3       -4.8515   -3.5027   -2.3823 H         1 ACP         0.4705
     34 H3B1       -1.7944   -2.3000   -4.1059 H         1 ACP         0.1189
     35 H3B2       -2.7121   -2.8478   -5.5053 H         1 ACP         0.1189
     36 HOA2        0.1258    1.9096   -6.0065 H         1 ACP         0.4679
     37 H5'1       -1.0110    0.8043   -2.1746 H         1 ACP         0.0587
     38 H5'2        0.2528    2.0159   -2.5111 H         1 ACP         0.0587
     39 H4'        -1.1469    3.5409   -0.8523 H         1 ACP         0.0938
     40 H3'         1.1601    2.1310   -0.2934 H         1 ACP         0.0597
     41 HO3'        0.3098    3.9616    0.8017 H         1 ACP         0.4554
     42 H2'        -0.0024   -0.0091    0.0062 H         1 ACP         0.0710
     43 HO2'        1.3225    0.4909    1.8095 H         1 ACP         0.4360
     44 H1'        -2.0584    1.4255    1.8301 H         1 ACP         0.1247
     45 H8         -1.3765   -1.4593   -0.5599 H         1 ACP         0.0875
     46 HN61       -5.3086   -4.0656    0.4134 H         1 ACP         0.4433
     47 HN62       -6.7426   -3.8233    1.3745 H         1 ACP         0.4433
     48 H2         -6.2570    0.3723    3.2040 H         1 ACP         0.0459
@<TRIPOS>BOND
     1    1    2 2
     2    1    3 1
     3    1    4 1
     4    1    8 1
     5    3   32 1
     6    4   33 1
     7    5    6 2
     8    5    7 1
     9    5    8 1
    10    5   12 1
    11    8   34 1
    12    8   35 1
    13    9   10 2
    14    9   11 1
    15    9   12 1
    16    9   13 1
    17   11   36 1
    18   13   14 1
    19   14   15 1
    20   14   37 1
    21   14   38 1
    22   15   16 1
    23   15   17 1
    24   15   39 1
    25   16   21 1
    26   17   18 1
    27   17   19 1
    28   17   40 1
    29   18   41 1
    30   19   20 1
    31   19   21 1
    32   19   42 1
    33   20   43 1
    34   21   22 1
    35   21   44 1
    36   22   23 ar
    37   22   31 ar
    38   23   24 ar
    39   23   45 1
    40   24   25 ar
    41   25   26 ar
    42   25   31 ar
    43   26   27 1
    44   26   28 ar
    45   27   46 1
    46   27   47 1
    47   28   29 ar
    48   29   30 ar
    49   29   48 1
    50   30   31 ar
@<TRIPOS>SUBSTRUCTURE
     1 ACP         1 GROUP 0 A     ****
@<TRIPOS>MOLECULE
[[5-(6-aminopurin-9-yl)-3,4-dihydroxy-tetrahydrofuran-2-yl]methoxy-hydroxy-phosphoryl]oxy-(phosphonomethyl)phosphinate
   48    50     1     0     0
SMALL
USER_CHARGES

@<TRIPOS>ATOM
      1 PG         -4.8422    3.9860    0.2685 P.3       1 ACP         1.6292
      2 O1G        -4.0718    3.1125   -0.6755 O.2       1 ACP        -0.8674
      3 O2G        -6.3652    4.3055   -0.1656 O.3       1 ACP        -0.7977
      4 O3G        -4.9863    3.4206    1.7749 O.3       1 ACP        -0.7977
      5 PB         -2.4245    5.8801    1.1905 P.3       1 ACP         1.4910
      6 O1B        -2.3933    5.2560    2.5664 O.co2     1 ACP        -0.8292
      7 O2B        -2.0583    7.3269    0.9534 O.co2     1 ACP        -0.8292
      8 C3B        -4.1273    5.6277    0.5134 C.3       1 ACP        -0.6453
      9 PA         -0.0715    4.4469    0.1409 P.3       1 ACP         1.7996
     10 O1A         0.9309    5.5629    0.0817 O.2       1 ACP        -0.8588
     11 O2A         0.0046    3.4141   -1.1020 O.3       1 ACP        -0.8037
     12 O3A        -1.6152    4.9291    0.1422 O.3       1 ACP        -0.7988
     13 O5'         0.0170    3.5129    1.4593 O.3       1 ACP        -0.5960
     14 C5'        -0.8811    2.4285    1.6206 C.3       1 ACP         0.1917
     15 C4'        -0.1994    1.3333    2.4288 C.3       1 ACP         0.0908
     16 O4'        -1.1285    0.2356    2.5840 O.3       1 ACP        -0.4111
     17 C3'         1.0324    0.7610    1.7344 C.3       1 ACP         0.0927
     18 O3'         1.9175    0.2377    2.7247 O.3       1 ACP        -0.6127
     19 C2'         0.4468   -0.3802    0.9263 C.3       1 ACP         0.1095
     20 O2'         1.3993   -1.3703    0.5961 O.3       1 ACP        -0.5953
     21 C1'        -0.6159   -0.9100    1.8769 C.3       1 ACP         0.4273
     22 N9         -1.7127   -1.6108    1.2130 N.pl3     1 ACP        -0.6934
     23 C8         -1.6011   -2.7426    0.4497 C.ar      1 ACP         0.5422
     24 N7         -2.7657   -3.1449   -0.0147 N.2       1 ACP        -0.5596
     25 C5         -3.6708   -2.2337    0.4686 C.ar      1 ACP        -0.2259
     26 C6         -5.0501   -2.1167    0.3282 C.ar      1 ACP         0.7526
     27 N6         -5.7760   -3.0497   -0.4318 N.pl3     1 ACP        -0.9660
     28 N1         -5.6892   -1.0882    0.9359 N.ar      1 ACP        -0.8027
     29 C2         -4.9364   -0.2212    1.6553 C.ar      1 ACP         0.6758
     30 N3         -3.6016   -0.2290    1.8634 N.ar      1 ACP        -0.7221
     31 C4         -3.0352   -1.2703    1.2354 C.ar      1 ACP         0.5858
     32 HOG2       -6.9934    3.5607   -0.2791 H         1 ACP         0.4705
     33 HOG3       -5.4806    3.9505    2.4362 H         1 ACP         0.4705
     34 H3B1       -4.1428    6.1330   -0.4589 H         1 ACP         0.1189
     35 H3B2       -4.8006    6.1862    1.1736 H         1 ACP         0.1189
     36 HOA2        0.8376    2.9203   -1.2580 H         1 ACP         0.4679
     37 H5'1       -1.7775    2.7842    2.1389 H         1 ACP         0.0587
     38 H5'2       -1.1659    2.0534    0.6322 H         1 ACP         0.0587
     39 H4'         0.0402    1.7079    3.4342 H         1 ACP         0.0938
     40 H3'         1.5907    1.4859    1.1353 H         1 ACP         0.0597
     41 HO3'        2.6839   -0.1150    2.2479 H         1 ACP         0.4554
     42 H2'        -0.0017    0.0018    0.0005 H         1 ACP         0.0710
     43 HO2'        2.0953   -0.9375    0.0709 H         1 ACP         0.4360
     44 H1'        -0.1998   -1.6319    2.6178 H         1 ACP         0.1247
     45 H8         -0.6507   -3.2259    0.2692 H         1 ACP         0.0875
     46 HN61       -5.2868   -3.7791   -0.9150 H         1 ACP         0.4433
     47 HN62       -6.7619   -2.9208   -0.5594 H         1 ACP         0.4433
     48 H2         -5.4806    0.5898    2.1277 H         1 ACP         0.0459
@<TRIPOS>BOND
     1    1    2 2
     2    1    3 1
     3    1    4 1
     4    1    8 1
     5    3   32 1
     6    4   33 1
     7    5    6 2
     8    5    7 1
     9    5    8 1
    10    5   12 1
    11    8   34 1
    12    8   35 1
    13    9   10 2
    14    9   11 1
    15    9   12 1
    16    9   13 1
    17   11   36 1
    18   13   14 1
    19   14   15 1
    20   14   37 1
    21   14   38 1
    22   15   16 1
    23   15   17 1
    24   15   39 1
    25   16   21 1
    26   17   18 1
    27   17   19 1
    28   17   40 1
    29   18   41 1
    30   19   20 1
    31   19   21 1
    32   19   42 1
    33   20   43 1
    34   21   22 1
    35   21   44 1
    36   22   23 ar
    37   22   31 ar
    38   23   24 ar
    39   23   45 1
    40   24   25 ar
    41   25   26 ar
    42   25   31 ar
    43   26   27 1
    44   26   28 ar
    45   27   46 1
    46   27   47 1
    47   28   29 ar
    48   29   30 ar
    49   29   48 1
    50   30   31 ar
@<TRIPOS>SUBSTRUCTURE
     1 ACP         1 GROUP 0 A     ****
@<TRIPOS>MOLECULE
[[5-(6-aminopurin-9-yl)-3,4-dihydroxy-tetrahydrofuran-2-yl]methoxy-hydroxy-phosphoryl]oxy-(phosphonomethyl)phosphinate
   48    50     1     0     0
SMALL
USER_CHARGES

@<TRIPOS>ATOM
      1 PG         -3.9273    6.5196    4.7589 P.3       1 ACP         1.6292
      2 O1G        -3.4524    7.8199    5.3344 O.2       1 ACP        -0.8674
      3 O2G        -5.2895    5.9321    5.3988 O.3       1 ACP        -0.7977
      4 O3G        -4.2271    6.5324    3.1715 O.3       1 ACP        -0.7977
      5 PB         -1.0551    5.1975    4.2251 P.3       1 ACP         1.4910
      6 O1B        -0.3840    3.8922    4.5849 O.co2     1 ACP        -0.8292
      7 O2B        -0.4535    6.5375    4.5801 O.co2     1 ACP        -0.8292
      8 C3B        -2.7586    5.1535    4.9444 C.3       1 ACP        -0.6453
      9 PA         -0.5525    5.0215    1.3253 P.3       1 ACP         1.7996
     10 O1A         0.4935    6.0854    1.1588 O.2       1 ACP        -0.8588
     11 O2A        -1.6302    4.9500    0.1208 O.3       1 ACP        -0.8037
     12 O3A        -1.4691    5.1810    2.6482 O.3       1 ACP        -0.7988
     13 O5'         0.0170    3.5129    1.4593 O.3       1 ACP        -0.5960
     14 C5'        -0.8811    2.4285    1.6206 C.3       1 ACP         0.1917
     15 C4'        -0.1994    1.3333    2.4288 C.3       1 ACP         0.0908
     16 O4'        -1.1285    0.2356    2.5840 O.3       1 ACP        -0.4111
     17 C3'         1.0324    0.7610    1.7344 C.3       1 ACP         0.0927
     18 O3'         1.9175    0.2377    2.7247 O.3       1 ACP        -0.6127
     19 C2'         0.4468   -0.3802    0.9263 C.3       1 ACP         0.1095
     20 O2'         1.3993   -1.3703    0.5961 O.3       1 ACP        -0.5953
     21 C1'        -0.6159   -0.9100    1.8769 C.3       1 ACP         0.4273
     22 N9         -1.7127   -1.6108    1.2130 N.pl3     1 ACP        -0.6934
     23 C8         -2.8641   -1.0399    0.7392 C.ar      1 ACP         0.5422
     24 N7         -3.6659   -1.9257    0.1858 N.2       1 ACP        -0.5596
     25 C5         -3.0053   -3.1223    0.3069 C.ar      1 ACP        -0.2259
     26 C6         -3.3321   -4.4178   -0.0813 C.ar      1 ACP         0.7526
     27 N6         -4.5476   -4.6866   -0.7335 N.pl3     1 ACP        -0.9660
     28 N1         -2.4608   -5.4225    0.1773 N.ar      1 ACP        -0.8027
     29 C2         -1.3053   -5.1020    0.8081 C.ar      1 ACP         0.6758
     30 N3         -0.8788   -3.8921    1.2315 N.ar      1 ACP        -0.7221
     31 C4         -1.7870   -2.9477    0.9438 C.ar      1 ACP         0.5858
     32 HOG2       -6.1100    6.4668    5.3435 H         1 ACP         0.4705
     33 HOG3       -4.5406    5.7090    2.7403 H         1 ACP         0.4705
     34 H3B1       -2.6274    4.9870    6.0196 H         1 ACP         0.1189
     35 H3B2       -3.2349    4.2539    4.5383 H         1 ACP         0.1189
     36 HOA2       -1.3125    4.7707   -0.7897 H         1 ACP         0.4679
     37 H5'1       -1.7775    2.7842    2.1389 H         1 ACP         0.0587
     38 H5'2       -1.1659    2.0534    0.6322 H         1 ACP         0.0587
     39 H4'         0.0402    1.7079    3.4342 H         1 ACP         0.0938
     40 H3'         1.5907    1.4859    1.1353 H         1 ACP         0.0597
     41 HO3'        2.1521    0.9800    3.3017 H         1 ACP         0.4554
     42 H2'        -0.0017    0.0018    0.0005 H         1 ACP         0.0710
     43 HO2'        2.0953   -0.9375    0.0709 H         1 ACP         0.4360
     44 H1'        -0.1998   -1.6319    2.6178 H         1 ACP         0.1247
     45 H8         -3.0609    0.0200    0.8250 H         1 ACP         0.0875
     46 HN61       -5.2046   -3.9433   -0.8775 H         1 ACP         0.4433
     47 HN62       -4.7849   -5.6332   -0.9625 H         1 ACP         0.4433
     48 H2         -0.6318   -5.9307    0.9993 H         1 ACP         0.0459
@<TRIPOS>BOND
     1    1    2 2
     2    1    3 1
     3    1    4 1
     4    1    8 1
     5    3   32 1
     6    4   33 1
     7    5    6 2
     8    5    7 1
     9    5    8 1
    10    5   12 1
    11    8   34 1
    12    8   35 1
    13    9   10 2
    14    9   11 1
    15    9   12 1
    16    9   13 1
    17   11   36 1
    18   13   14 1
    19   14   15 1
    20   14   37 1
    21   14   38 1
    22   15   16 1
    23   15   17 1
    24   15   39 1
    25   16   21 1
    26   17   18 1
    27   17   19 1
    28   17   40 1
    29   18   41 1
    30   19   20 1
    31   19   21 1
    32   19   42 1
    33   20   43 1
    34   21   22 1
    35   21   44 1
    36   22   23 ar
    37   22   31 ar
    38   23   24 ar
    39   23   45 1
    40   24   25 ar
    41   25   26 ar
    42   25   31 ar
    43   26   27 1
    44   26   28 ar
    45   27   46 1
    46   27   47 1
    47   28   29 ar
    48   29   30 ar
    49   29   48 1
    50   30   31 ar
@<TRIPOS>SUBSTRUCTURE
     1 ACP         1 GROUP 0 A     ****
@<TRIPOS>MOLECULE
[[5-(6-aminopurin-9-yl)-3,4-dihydroxy-tetrahydrofuran-2-yl]methoxy-hydroxy-phosphoryl]oxy-(phosphonomethyl)phosphinate
   48    50     1     0     0
SMALL
USER_CHARGES

@<TRIPOS>ATOM
      1 PG         -4.7836    2.8447    3.7517 P.3       1 ACP         1.6292
      2 O1G        -4.7739    3.0230    2.2632 O.2       1 ACP        -0.8674
      3 O2G        -6.2462    2.7508    4.4314 O.3       1 ACP        -0.7977
      4 O3G        -4.0252    1.5266    4.2969 O.3       1 ACP        -0.7977
      5 PB         -2.2068    4.6298    4.4273 P.3       1 ACP         1.4910
      6 O1B        -1.3890    3.4079    4.7764 O.co2     1 ACP        -0.8292
      7 O2B        -1.9859    5.9658    5.0979 O.co2     1 ACP        -0.8292
      8 C3B        -3.9861    4.1842    4.6661 C.3       1 ACP        -0.6453
      9 PA         -1.0211    5.0514    1.7610 P.3       1 ACP         1.7996
     10 O1A        -0.2009    6.2833    2.0125 O.2       1 ACP        -0.8588
     11 O2A        -1.7535    5.0194    0.3188 O.3       1 ACP        -0.8037
     12 O3A        -2.2321    4.8245    2.8087 O.3       1 ACP        -0.7988
     13 O5'        -0.2069    3.6554    1.8412 O.3       1 ACP        -0.5960
     14 C5'        -0.8811    2.4285    1.6206 C.3       1 ACP         0.1917
     15 C4'        -0.1994    1.3333    2.4288 C.3       1 ACP         0.0908
     16 O4'        -1.1285    0.2356    2.5840 O.3       1 ACP        -0.4111
     17 C3'         1.0324    0.7610    1.7344 C.3       1 ACP         0.0927
     18 O3'         1.9175    0.2377    2.7247 O.3       1 ACP        -0.6127
     19 C2'         0.4468   -0.3802    0.9263 C.3       1 ACP         0.1095
     20 O2'         1.3993   -1.3703    0.5961 O.3       1 ACP        -0.5953
     21 C1'        -0.6159   -0.9100    1.8769 C.3       1 ACP         0.4273
     22 N9         -1.7127   -1.6108    1.2130 N.pl3     1 ACP        -0.6934
     23 C8         -2.5476   -1.0844    0.2632 C.ar      1 ACP         0.5422
     24 N7         -3.4391   -1.9591   -0.1536 N.2       1 ACP        -0.5596
     25 C5         -3.1701   -3.1016    0.5574 C.ar      1 ACP        -0.2259
     26 C6         -3.7593   -4.3620    0.5656 C.ar      1 ACP         0.7526
     27 N6         -4.8512   -4.6493   -0.2712 N.pl3     1 ACP        -0.9660
     28 N1         -3.2659   -5.3144    1.3932 N.ar      1 ACP        -0.8027
     29 C2         -2.2122   -4.9785    2.1759 C.ar      1 ACP         0.6758
     30 N3         -1.5595   -3.7985    2.2572 N.ar      1 ACP        -0.7221
     31 C4         -2.0986   -2.9054    1.4140 C.ar      1 ACP         0.5858
     32 HOG2       -6.8525    2.0301    4.1572 H         1 ACP         0.4705
     33 HOG3       -3.9995    1.3583    5.2630 H         1 ACP         0.4705
     34 H3B1       -4.5557    5.0974    4.4597 H         1 ACP         0.1189
     35 H3B2       -4.1031    3.9701    5.7346 H         1 ACP         0.1189
     36 HOA2       -2.3932    5.7288    0.0960 H         1 ACP         0.4679
     37 H5'1       -1.9259    2.5372    1.9293 H         1 ACP         0.0587
     38 H5'2       -0.8477    2.1923    0.5521 H         1 ACP         0.0587
     39 H4'         0.0402    1.7079    3.4342 H         1 ACP         0.0938
     40 H3'         1.5907    1.4859    1.1353 H         1 ACP         0.0597
     41 HO3'        2.1521    0.9800    3.3017 H         1 ACP         0.4554
     42 H2'        -0.0017    0.0018    0.0005 H         1 ACP         0.0710
     43 HO2'        0.9369   -2.0558    0.0825 H         1 ACP         0.4360
     44 H1'        -0.1998   -1.6319    2.6178 H         1 ACP         0.1247
     45 H8         -2.4576   -0.0639   -0.0831 H         1 ACP         0.0875
     46 HN61       -5.2371   -3.9234   -0.8448 H         1 ACP         0.4433
     47 HN62       -5.2909   -5.5485   -0.2160 H         1 ACP         0.4433
     48 H2         -1.8433   -5.7650    2.8259 H         1 ACP         0.0459
@<TRIPOS>BOND
     1    1    2 2
     2    1    3 1
     3    1    4 1
     4    1    8 1
     5    3   32 1
     6    4   33 1
     7    5    6 2
     8    5    7 1
     9    5    8 1
    10    5   12 1
    11    8   34 1
    12    8   35 1
    13    9   10 2
    14    9   11 1
    15    9   12 1
    16    9   13 1
    17   11   36 1
    18   13   14 1
    19   14   15 1
    20   14   37 1
    21   14   38 1
    22   15   16 1
    23   15   17 1
    24   15   39 1
    25   16   21 1
    26   17   18 1
    27   17   19 1
    28   17   40 1
    29   18   41 1
    30   19   20 1
    31   19   21 1
    32   19   42 1
    33   20   43 1
    34   21   22 1
    35   21   44 1
    36   22   23 ar
    37   22   31 ar
    38   23   24 ar
    39   23   45 1
    40   24   25 ar
    41   25   26 ar
    42   25   31 ar
    43   26   27 1
    44   26   28 ar
    45   27   46 1
    46   27   47 1
    47   28   29 ar
    48   29   30 ar
    49   29   48 1
    50   30   31 ar
@<TRIPOS>SUBSTRUCTURE
     1 ACP         1 GROUP 0 A     ****
@<TRIPOS>MOLECULE
[[5-(6-aminopurin-9-yl)-3,4-dihydroxy-tetrahydrofuran-2-yl]methoxy-hydroxy-phosphoryl]oxy-(phosphonomethyl)phosphinate
   48    50     1     0     0
SMALL
USER_CHARGES

@<TRIPOS>ATOM
      1 PG          5.8606    1.8561   -4.7932 P.3       1 ACP         1.6292
      2 O1G         4.5856    2.2199   -4.0935 O.2       1 ACP        -0.8674
      3 O2G         5.7281    0.7196   -5.9338 O.3       1 ACP        -0.7977
      4 O3G         6.6063    3.0718   -5.5520 O.3       1 ACP        -0.7977
      5 PB          7.8432    2.1753   -2.2932 P.3       1 ACP         1.4910
      6 O1B         8.4548    3.4294   -2.8736 O.co2     1 ACP        -0.8292
      7 O2B         8.6345    1.2155   -1.4352 O.co2     1 ACP        -0.8292
      8 C3B         7.1462    1.2028   -3.7038 C.3       1 ACP        -0.6453
      9 PA          6.1389    3.5429   -0.3138 P.3       1 ACP         1.7996
     10 O1A         6.5226    4.9737   -0.5571 O.2       1 ACP        -0.8588
     11 O2A         6.9057    2.8480    0.9299 O.3       1 ACP        -0.8037
     12 O3A         6.4393    2.5464   -1.5517 O.3       1 ACP        -0.7988
     13 O5'         4.5673    3.2930   -0.0211 O.3       1 ACP        -0.5960
     14 C5'         4.0922    1.9801    0.2227 C.3       1 ACP         0.1917
     15 C4'         2.5944    2.0310    0.4653 C.3       1 ACP         0.0908
     16 O4'         1.9327    2.5740   -0.6889 O.3       1 ACP        -0.4111
     17 C3'         1.9685    0.6634    0.6767 C.3       1 ACP         0.0927
     18 O3'         2.1425    0.1975    1.9977 O.3       1 ACP        -0.6127
     19 C2'         0.5176    0.9128    0.3099 C.3       1 ACP         0.1095
     20 O2'        -0.2103    1.4454    1.4152 O.3       1 ACP        -0.5953
     21 C1'         0.6219    1.9765   -0.7844 C.3       1 ACP         0.4273
     22 N9          0.4237    1.4496   -2.1357 N.pl3     1 ACP        -0.6934
     23 C8          1.4026    0.9717   -2.9660 C.ar      1 ACP         0.5422
     24 N7          0.9183    0.5619   -4.1197 N.2       1 ACP        -0.5596
     25 C5         -0.4330    0.7845   -4.0331 C.ar      1 ACP        -0.2259
     26 C6         -1.4794    0.5615   -4.9225 C.ar      1 ACP         0.7526
     27 N6         -1.2378    0.0044   -6.1899 N.pl3     1 ACP        -0.9660
     28 N1         -2.7406    0.8885   -4.5512 N.ar      1 ACP        -0.8027
     29 C2         -2.9113    1.4216   -3.3172 C.ar      1 ACP         0.6758
     30 N3         -1.9824    1.6843   -2.3721 N.ar      1 ACP        -0.7221
     31 C4         -0.7613    1.3370   -2.8054 C.ar      1 ACP         0.5858
     32 HOG2        6.5311    0.4424   -6.4242 H         1 ACP         0.4705
     33 HOG3        6.1330    3.5469   -6.2680 H         1 ACP         0.4705
     34 H3B1        6.7568    0.2760   -3.2674 H         1 ACP         0.1189
     35 H3B2        8.0011    0.9253   -4.3309 H         1 ACP         0.1189
     36 HOA2        6.8017    3.2332    1.8260 H         1 ACP         0.4679
     37 H5'1        4.3175    1.3541   -0.6468 H         1 ACP         0.0587
     38 H5'2        4.6079    1.5730    1.0985 H         1 ACP         0.0587
     39 H4'         2.3752    2.7029    1.3156 H         1 ACP         0.0938
     40 H3'         2.4336   -0.1217   -0.0016 H         1 ACP         0.0597
     41 HO3'        1.7160   -0.6716    2.0397 H         1 ACP         0.4554
     42 H2'         0.0316    0.0155   -0.0339 H         1 ACP         0.0710
     43 HO2'       -1.1270    1.5823    1.1180 H         1 ACP         0.4360
     44 H1'        -0.1474    2.7798   -0.6651 H         1 ACP         0.1247
     45 H8          2.4442    0.9470   -2.6763 H         1 ACP         0.0875
     46 HN61       -0.2955   -0.1901   -6.4713 H         1 ACP         0.4433
     47 HN62       -1.9987   -0.1045   -6.8334 H         1 ACP         0.4433
     48 H2         -3.9335    1.6716   -3.0534 H         1 ACP         0.0459
@<TRIPOS>BOND
     1    1    2 2
     2    1    3 1
     3    1    4 1
     4    1    8 1
     5    3   32 1
     6    4   33 1
     7    5    6 2
     8    5    7 1
     9    5    8 1
    10    5   12 1
    11    8   34 1
    12    8   35 1
    13    9   10 2
    14    9   11 1
    15    9   12 1
    16    9   13 1
    17   11   36 1
    18   13   14 1
    19   14   15 1
    20   14   37 1
    21   14   38 1
    22   15   16 1
    23   15   17 1
    24   15   39 1
    25   16   21 1
    26   17   18 1
    27   17   19 1
    28   17   40 1
    29   18   41 1
    30   19   20 1
    31   19   21 1
    32   19   42 1
    33   20   43 1
    34   21   22 1
    35   21   44 1
    36   22   23 ar
    37   22   31 ar
    38   23   24 ar
    39   23   45 1
    40   24   25 ar
    41   25   26 ar
    42   25   31 ar
    43   26   27 1
    44   26   28 ar
    45   27   46 1
    46   27   47 1
    47   28   29 ar
    48   29   30 ar
    49   29   48 1
    50   30   31 ar
@<TRIPOS>SUBSTRUCTURE
     1 ACP         1 GROUP 0 A     ****
@<TRIPOS>MOLECULE
[[5-(6-aminopurin-9-yl)-3,4-dihydroxy-tetrahydrofuran-2-yl]methoxy-hydroxy-phosphoryl]oxy-(phosphonomethyl)phosphinate
   48    50     1     0     0
SMALL
USER_CHARGES

@<TRIPOS>ATOM
      1 PG         -2.0966    2.2197   -2.6716 P.3       1 ACP         1.6292
      2 O1G        -1.2674    1.0403   -2.2606 O.2       1 ACP        -0.8674
      3 O2G        -1.5483    3.6591   -2.1844 O.3       1 ACP        -0.7977
      4 O3G        -2.2945    2.4068   -4.2640 O.3       1 ACP        -0.7977
      5 PB         -4.1884    2.1572   -0.2419 P.3       1 ACP         1.4910
      6 O1B        -3.5634    0.9062    0.3306 O.co2     1 ACP        -0.8292
      7 O2B        -5.6624    2.4587   -0.1008 O.co2     1 ACP        -0.8292
      8 C3B        -3.7929    2.1892   -2.0486 C.3       1 ACP        -0.6453
      9 PA         -2.9682    4.0282    1.6825 P.3       1 ACP         1.7996
     10 O1A        -4.1668    4.4027    2.5051 O.2       1 ACP        -0.8588
     11 O2A        -1.9512    5.2515    1.3883 O.3       1 ACP        -0.8037
     12 O3A        -3.3154    3.4582    0.2093 O.3       1 ACP        -0.7988
     13 O5'        -2.0397    2.8622    2.3121 O.3       1 ACP        -0.5960
     14 C5'        -0.8811    2.4285    1.6206 C.3       1 ACP         0.1917
     15 C4'        -0.1994    1.3333    2.4288 C.3       1 ACP         0.0908
     16 O4'        -1.1285    0.2356    2.5840 O.3       1 ACP        -0.4111
     17 C3'         1.0324    0.7610    1.7344 C.3       1 ACP         0.0927
     18 O3'         1.9175    0.2377    2.7247 O.3       1 ACP        -0.6127
     19 C2'         0.4468   -0.3802    0.9263 C.3       1 ACP         0.1095
     20 O2'         1.3993   -1.3703    0.5961 O.3       1 ACP        -0.5953
     21 C1'        -0.6159   -0.9100    1.8769 C.3       1 ACP         0.4273
     22 N9         -1.7127   -1.6108    1.2130 N.pl3     1 ACP        -0.6934
     23 C8         -1.6230   -2.3308    0.0513 C.ar      1 ACP         0.5422
     24 N7         -2.7800   -2.8517   -0.3004 N.2       1 ACP        -0.5596
     25 C5         -3.6574   -2.4511    0.6758 C.ar      1 ACP        -0.2259
     26 C6         -5.0170   -2.6775    0.8654 C.ar      1 ACP         0.7526
     27 N6         -5.7504   -3.4510   -0.0504 N.pl3     1 ACP        -0.9660
     28 N1         -5.6292   -2.1415    1.9486 N.ar      1 ACP        -0.8027
     29 C2         -4.8703   -1.4055    2.7961 C.ar      1 ACP         0.6758
     30 N3         -3.5527   -1.1170    2.7199 N.ar      1 ACP        -0.7221
     31 C4         -3.0124   -1.6774    1.6275 C.ar      1 ACP         0.5858
     32 HOG2       -1.4510    3.8304   -1.2234 H         1 ACP         0.4705
     33 HOG3       -1.5031    2.5328   -4.8298 H         1 ACP         0.4705
     34 H3B1       -4.2991    3.0734   -2.4522 H         1 ACP         0.1189
     35 H3B2       -4.2883    1.3128   -2.4817 H         1 ACP         0.1189
     36 HOA2       -1.5318    5.7121    2.1460 H         1 ACP         0.4679
     37 H5'1       -1.1760    2.0499    0.6365 H         1 ACP         0.0587
     38 H5'2       -0.2073    3.2811    1.4873 H         1 ACP         0.0587
     39 H4'         0.0402    1.7079    3.4342 H         1 ACP         0.0938
     40 H3'         1.5907    1.4859    1.1353 H         1 ACP         0.0597
     41 HO3'        2.6839   -0.1150    2.2479 H         1 ACP         0.4554
     42 H2'        -0.0017    0.0018    0.0005 H         1 ACP         0.0710
     43 HO2'        2.0953   -0.9375    0.0709 H         1 ACP         0.4360
     44 H1'        -0.1998   -1.6319    2.6178 H         1 ACP         0.1247
     45 H8         -0.6932   -2.4401   -0.4900 H         1 ACP         0.0875
     46 HN61       -5.2972   -3.8032   -0.8723 H         1 ACP         0.4433
     47 HN62       -6.7381   -3.5629    0.0791 H         1 ACP         0.4433
     48 H2         -5.3929   -0.9917    3.6520 H         1 ACP         0.0459
@<TRIPOS>BOND
     1    1    2 2
     2    1    3 1
     3    1    4 1
     4    1    8 1
     5    3   32 1
     6    4   33 1
     7    5    6 2
     8    5    7 1
     9    5    8 1
    10    5   12 1
    11    8   34 1
    12    8   35 1
    13    9   10 2
    14    9   11 1
    15    9   12 1
    16    9   13 1
    17   11   36 1
    18   13   14 1
    19   14   15 1
    20   14   37 1
    21   14   38 1
    22   15   16 1
    23   15   17 1
    24   15   39 1
    25   16   21 1
    26   17   18 1
    27   17   19 1
    28   17   40 1
    29   18   41 1
    30   19   20 1
    31   19   21 1
    32   19   42 1
    33   20   43 1
    34   21   22 1
    35   21   44 1
    36   22   23 ar
    37   22   31 ar
    38   23   24 ar
    39   23   45 1
    40   24   25 ar
    41   25   26 ar
    42   25   31 ar
    43   26   27 1
    44   26   28 ar
    45   27   46 1
    46   27   47 1
    47   28   29 ar
    48   29   30 ar
    49   29   48 1
    50   30   31 ar
@<TRIPOS>SUBSTRUCTURE
     1 ACP         1 GROUP 0 A     ****
@<TRIPOS>MOLECULE
[[5-(6-aminopurin-9-yl)-3,4-dihydroxy-tetrahydrofuran-2-yl]methoxy-hydroxy-phosphoryl]oxy-(phosphonomethyl)phosphinate
   48    50     1     0     0
SMALL
USER_CHARGES

@<TRIPOS>ATOM
      1 PG          6.3123   -0.3838   -3.4721 P.3       1 ACP         1.6292
      2 O1G         5.0978   -0.3199   -2.5955 O.2       1 ACP        -0.8674
      3 O2G         7.4957   -1.3525   -2.9513 O.3       1 ACP        -0.7977
      4 O3G         6.0493   -0.8840   -4.9855 O.3       1 ACP        -0.7977
      5 PB          7.8432    2.1753   -2.2932 P.3       1 ACP         1.4910
      6 O1B         8.4548    3.4294   -2.8736 O.co2     1 ACP        -0.8292
      7 O2B         8.6345    1.2155   -1.4352 O.co2     1 ACP        -0.8292
      8 C3B         7.1462    1.2028   -3.7038 C.3       1 ACP        -0.6453
      9 PA          6.1389    3.5429   -0.3138 P.3       1 ACP         1.7996
     10 O1A         6.5226    4.9737   -0.5571 O.2       1 ACP        -0.8588
     11 O2A         6.9057    2.8480    0.9299 O.3       1 ACP        -0.8037
     12 O3A         6.4393    2.5464   -1.5517 O.3       1 ACP        -0.7988
     13 O5'         4.5673    3.2930   -0.0211 O.3       1 ACP        -0.5960
     14 C5'         4.0922    1.9801    0.2227 C.3       1 ACP         0.1917
     15 C4'         2.5944    2.0310    0.4653 C.3       1 ACP         0.0908
     16 O4'         1.9327    2.5740   -0.6889 O.3       1 ACP        -0.4111
     17 C3'         1.9685    0.6634    0.6767 C.3       1 ACP         0.0927
     18 O3'         2.1425    0.1975    1.9977 O.3       1 ACP        -0.6127
     19 C2'         0.5176    0.9128    0.3099 C.3       1 ACP         0.1095
     20 O2'        -0.2103    1.4454    1.4152 O.3       1 ACP        -0.5953
     21 C1'         0.6219    1.9765   -0.7844 C.3       1 ACP         0.4273
     22 N9          0.4237    1.4496   -2.1357 N.pl3     1 ACP        -0.6934
     23 C8          1.4026    0.9717   -2.9660 C.ar      1 ACP         0.5422
     24 N7          0.9183    0.5619   -4.1197 N.2       1 ACP        -0.5596
     25 C5         -0.4330    0.7845   -4.0331 C.ar      1 ACP        -0.2259
     26 C6         -1.4794    0.5615   -4.9225 C.ar      1 ACP         0.7526
     27 N6         -1.2378    0.0044   -6.1899 N.pl3     1 ACP        -0.9660
     28 N1         -2.7406    0.8885   -4.5512 N.ar      1 ACP        -0.8027
     29 C2         -2.9113    1.4216   -3.3172 C.ar      1 ACP         0.6758
     30 N3         -1.9824    1.6843   -2.3721 N.ar      1 ACP        -0.7221
     31 C4         -0.7613    1.3370   -2.8054 C.ar      1 ACP         0.5858
     32 HOG2        8.3143   -1.4326   -3.4859 H         1 ACP         0.4705
     33 HOG3        5.6700   -1.7767   -5.1320 H         1 ACP         0.4705
     34 H3B1        7.9814    1.0290   -4.3917 H         1 ACP         0.1189
     35 H3B2        6.4458    1.8726   -4.2155 H         1 ACP         0.1189
     36 HOA2        6.8017    3.2332    1.8260 H         1 ACP         0.4679
     37 H5'1        4.3175    1.3541   -0.6468 H         1 ACP         0.0587
     38 H5'2        4.6079    1.5730    1.0985 H         1 ACP         0.0587
     39 H4'         2.3752    2.7029    1.3156 H         1 ACP         0.0938
     40 H3'         2.4336   -0.1217   -0.0016 H         1 ACP         0.0597
     41 HO3'        1.7160   -0.6716    2.0397 H         1 ACP         0.4554
     42 H2'         0.0316    0.0155   -0.0339 H         1 ACP         0.0710
     43 HO2'       -0.1608    0.7921    2.1351 H         1 ACP         0.4360
     44 H1'        -0.1474    2.7798   -0.6651 H         1 ACP         0.1247
     45 H8          2.4442    0.9470   -2.6763 H         1 ACP         0.0875
     46 HN61       -0.2955   -0.1901   -6.4713 H         1 ACP         0.4433
     47 HN62       -1.9987   -0.1045   -6.8334 H         1 ACP         0.4433
     48 H2         -3.9335    1.6716   -3.0534 H         1 ACP         0.0459
@<TRIPOS>BOND
     1    1    2 2
     2    1    3 1
     3    1    4 1
     4    1    8 1
     5    3   32 1
     6    4   33 1
     7    5    6 2
     8    5    7 1
     9    5    8 1
    10    5   12 1
    11    8   34 1
    12    8   35 1
    13    9   10 2
    14    9   11 1
    15    9   12 1
    16    9   13 1
    17   11   36 1
    18   13   14 1
    19   14   15 1
    20   14   37 1
    21   14   38 1
    22   15   16 1
    23   15   17 1
    24   15   39 1
    25   16   21 1
    26   17   18 1
    27   17   19 1
    28   17   40 1
    29   18   41 1
    30   19   20 1
    31   19   21 1
    32   19   42 1
    33   20   43 1
    34   21   22 1
    35   21   44 1
    36   22   23 ar
    37   22   31 ar
    38   23   24 ar
    39   23   45 1
    40   24   25 ar
    41   25   26 ar
    42   25   31 ar
    43   26   27 1
    44   26   28 ar
    45   27   46 1
    46   27   47 1
    47   28   29 ar
    48   29   30 ar
    49   29   48 1
    50   30   31 ar
@<TRIPOS>SUBSTRUCTURE
     1 ACP         1 GROUP 0 A     ****
@<TRIPOS>MOLECULE
[[5-(6-aminopurin-9-yl)-3,4-dihydroxy-tetrahydrofuran-2-yl]methoxy-hydroxy-phosphoryl]oxy-(phosphonomethyl)phosphinate
   48    50     1     0     0
SMALL
USER_CHARGES

@<TRIPOS>ATOM
      1 PG          3.0948    5.0179    0.3339 P.3       1 ACP         1.6292
      2 O1G         2.4438    4.2018    1.4098 O.2       1 ACP        -0.8674
      3 O2G         2.8372    6.6107    0.4172 O.3       1 ACP        -0.7977
      4 O3G         4.7035    4.8964    0.2491 O.3       1 ACP        -0.7977
      5 PB          0.8009    4.7298   -1.8882 P.3       1 ACP         1.4910
      6 O1B         0.7482    4.2990   -3.3357 O.co2     1 ACP        -0.8292
      7 O2B         0.2886    6.0752   -1.4288 O.co2     1 ACP        -0.8292
      8 C3B         2.5632    4.5986   -1.3418 C.3       1 ACP        -0.6453
      9 PA         -1.2967    2.8900   -0.9354 P.3       1 ACP         1.7996
     10 O1A        -1.6931    2.2285   -2.2234 O.2       1 ACP        -0.8588
     11 O2A        -2.2602    4.1096   -0.4866 O.3       1 ACP        -0.8037
     12 O3A         0.1782    3.5535   -0.9465 O.3       1 ACP        -0.7988
     13 O5'        -1.2435    1.9111    0.3519 O.3       1 ACP        -0.5960
     14 C5'        -0.8811    2.4285    1.6206 C.3       1 ACP         0.1917
     15 C4'        -0.1994    1.3333    2.4288 C.3       1 ACP         0.0908
     16 O4'        -1.1285    0.2356    2.5840 O.3       1 ACP        -0.4111
     17 C3'         1.0324    0.7610    1.7344 C.3       1 ACP         0.0927
     18 O3'         1.9175    0.2377    2.7247 O.3       1 ACP        -0.6127
     19 C2'         0.4468   -0.3802    0.9263 C.3       1 ACP         0.1095
     20 O2'         1.3993   -1.3703    0.5961 O.3       1 ACP        -0.5953
     21 C1'        -0.6159   -0.9100    1.8769 C.3       1 ACP         0.4273
     22 N9         -1.7127   -1.6108    1.2130 N.pl3     1 ACP        -0.6934
     23 C8         -2.8641   -1.0399    0.7392 C.ar      1 ACP         0.5422
     24 N7         -3.6659   -1.9257    0.1858 N.2       1 ACP        -0.5596
     25 C5         -3.0053   -3.1223    0.3069 C.ar      1 ACP        -0.2259
     26 C6         -3.3321   -4.4178   -0.0813 C.ar      1 ACP         0.7526
     27 N6         -4.5476   -4.6866   -0.7335 N.pl3     1 ACP        -0.9660
     28 N1         -2.4608   -5.4225    0.1773 N.ar      1 ACP        -0.8027
     29 C2         -1.3053   -5.1020    0.8081 C.ar      1 ACP         0.6758
     30 N3         -0.8788   -3.8921    1.2315 N.ar      1 ACP        -0.7221
     31 C4         -1.7870   -2.9477    0.9438 C.ar      1 ACP         0.5858
     32 HOG2        3.2394    7.1934   -0.2616 H         1 ACP         0.4705
     33 HOG3        5.2414    5.1559    1.0273 H         1 ACP         0.4705
     34 H3B1        3.1392    5.2290   -2.0286 H         1 ACP         0.1189
     35 H3B2        2.8625    3.5619   -1.5337 H         1 ACP         0.1189
     36 HOA2       -3.2114    3.9290   -0.3288 H         1 ACP         0.4679
     37 H5'1       -0.2031    3.2762    1.4777 H         1 ACP         0.0587
     38 H5'2       -1.7839    2.7764    2.1331 H         1 ACP         0.0587
     39 H4'         0.0402    1.7079    3.4342 H         1 ACP         0.0938
     40 H3'         1.5907    1.4859    1.1353 H         1 ACP         0.0597
     41 HO3'        2.6839   -0.1150    2.2479 H         1 ACP         0.4554
     42 H2'        -0.0017    0.0018    0.0005 H         1 ACP         0.0710
     43 HO2'        2.0953   -0.9375    0.0709 H         1 ACP         0.4360
     44 H1'        -0.1998   -1.6319    2.6178 H         1 ACP         0.1247
     45 H8         -3.0609    0.0200    0.8250 H         1 ACP         0.0875
     46 HN61       -5.2046   -3.9433   -0.8775 H         1 ACP         0.4433
     47 HN62       -4.7849   -5.6332   -0.9625 H         1 ACP         0.4433
     48 H2         -0.6318   -5.9307    0.9993 H         1 ACP         0.0459
@<TRIPOS>BOND
     1    1    2 2
     2    1    3 1
     3    1    4 1
     4    1    8 1
     5    3   32 1
     6    4   33 1
     7    5    6 2
     8    5    7 1
     9    5    8 1
    10    5   12 1
    11    8   34 1
    12    8   35 1
    13    9   10 2
    14    9   11 1
    15    9   12 1
    16    9   13 1
    17   11   36 1
    18   13   14 1
    19   14   15 1
    20   14   37 1
    21   14   38 1
    22   15   16 1
    23   15   17 1
    24   15   39 1
    25   16   21 1
    26   17   18 1
    27   17   19 1
    28   17   40 1
    29   18   41 1
    30   19   20 1
    31   19   21 1
    32   19   42 1
    33   20   43 1
    34   21   22 1
    35   21   44 1
    36   22   23 ar
    37   22   31 ar
    38   23   24 ar
    39   23   45 1
    40   24   25 ar
    41   25   26 ar
    42   25   31 ar
    43   26   27 1
    44   26   28 ar
    45   27   46 1
    46   27   47 1
    47   28   29 ar
    48   29   30 ar
    49   29   48 1
    50   30   31 ar
@<TRIPOS>SUBSTRUCTURE
     1 ACP         1 GROUP 0 A     ****
@<TRIPOS>MOLECULE
[[5-(6-aminopurin-9-yl)-3,4-dihydroxy-tetrahydrofuran-2-yl]methoxy-hydroxy-phosphoryl]oxy-(phosphonomethyl)phosphinate
   48    50     1     0     0
SMALL
USER_CHARGES

@<TRIPOS>ATOM
      1 PG          7.2474    0.9143    3.1981 P.3       1 ACP         1.6292
      2 O1G         7.4247    2.1761    2.4082 O.2       1 ACP        -0.8674
      3 O2G         8.2754    0.7135    4.4282 O.3       1 ACP        -0.7977
      4 O3G         5.7956    0.7215    3.8800 O.3       1 ACP        -0.7977
      5 PB          6.3864   -1.0048    0.7776 P.3       1 ACP         1.4910
      6 O1B         4.9601   -1.0730    1.2722 O.co2     1 ACP        -0.8292
      7 O2B         7.0421   -2.1542    0.0480 O.co2     1 ACP        -0.8292
      8 C3B         7.4522   -0.6009    2.2345 C.3       1 ACP        -0.6453
      9 PA          5.8746    0.9206   -1.3958 P.3       1 ACP         1.7996
     10 O1A         6.0243    0.0318   -2.5963 O.2       1 ACP        -0.8588
     11 O2A         6.4832    2.4075   -1.5854 O.3       1 ACP        -0.8037
     12 O3A         6.6072    0.3762   -0.0606 O.3       1 ACP        -0.7988
     13 O5'         4.3521    1.1579   -0.9020 O.3       1 ACP        -0.5960
     14 C5'         4.0922    1.9801    0.2227 C.3       1 ACP         0.1917
     15 C4'         2.5944    2.0310    0.4653 C.3       1 ACP         0.0908
     16 O4'         1.9327    2.5740   -0.6889 O.3       1 ACP        -0.4111
     17 C3'         1.9685    0.6634    0.6767 C.3       1 ACP         0.0927
     18 O3'         2.1425    0.1975    1.9977 O.3       1 ACP        -0.6127
     19 C2'         0.5176    0.9128    0.3099 C.3       1 ACP         0.1095
     20 O2'        -0.2103    1.4454    1.4152 O.3       1 ACP        -0.5953
     21 C1'         0.6219    1.9765   -0.7844 C.3       1 ACP         0.4273
     22 N9          0.4237    1.4496   -2.1357 N.pl3     1 ACP        -0.6934
     23 C8          1.4026    0.9717   -2.9660 C.ar      1 ACP         0.5422
     24 N7          0.9183    0.5619   -4.1197 N.2       1 ACP        -0.5596
     25 C5         -0.4330    0.7845   -4.0331 C.ar      1 ACP        -0.2259
     26 C6         -1.4794    0.5615   -4.9225 C.ar      1 ACP         0.7526
     27 N6         -1.2378    0.0044   -6.1899 N.pl3     1 ACP        -0.9660
     28 N1         -2.7406    0.8885   -4.5512 N.ar      1 ACP        -0.8027
     29 C2         -2.9113    1.4216   -3.3172 C.ar      1 ACP         0.6758
     30 N3         -1.9824    1.6843   -2.3721 N.ar      1 ACP        -0.7221
     31 C4         -0.7613    1.3370   -2.8054 C.ar      1 ACP         0.5858
     32 HOG2        8.2906    1.3792    5.1485 H         1 ACP         0.4705
     33 HOG3        5.6224   -0.0862    4.4091 H         1 ACP         0.4705
     34 H3B1        8.4838   -0.6092    1.8646 H         1 ACP         0.1189
     35 H3B2        7.3541   -1.4469    2.9243 H         1 ACP         0.1189
     36 HOA2        6.1250    2.9792   -2.2976 H         1 ACP         0.4679
     37 H5'1        4.6066    1.5623    1.0942 H         1 ACP         0.0587
     38 H5'2        4.4821    2.9842    0.0261 H         1 ACP         0.0587
     39 H4'         2.3752    2.7029    1.3156 H         1 ACP         0.0938
     40 H3'         2.4336   -0.1217   -0.0016 H         1 ACP         0.0597
     41 HO3'        3.0987    0.1465    2.1461 H         1 ACP         0.4554
     42 H2'         0.0316    0.0155   -0.0339 H         1 ACP         0.0710
     43 HO2'       -0.1608    0.7921    2.1351 H         1 ACP         0.4360
     44 H1'        -0.1474    2.7798   -0.6651 H         1 ACP         0.1247
     45 H8          2.4442    0.9470   -2.6763 H         1 ACP         0.0875
     46 HN61       -0.2955   -0.1901   -6.4713 H         1 ACP         0.4433
     47 HN62       -1.9987   -0.1045   -6.8334 H         1 ACP         0.4433
     48 H2         -3.9335    1.6716   -3.0534 H         1 ACP         0.0459
@<TRIPOS>BOND
     1    1    2 2
     2    1    3 1
     3    1    4 1
     4    1    8 1
     5    3   32 1
     6    4   33 1
     7    5    6 2
     8    5    7 1
     9    5    8 1
    10    5   12 1
    11    8   34 1
    12    8   35 1
    13    9   10 2
    14    9   11 1
    15    9   12 1
    16    9   13 1
    17   11   36 1
    18   13   14 1
    19   14   15 1
    20   14   37 1
    21   14   38 1
    22   15   16 1
    23   15   17 1
    24   15   39 1
    25   16   21 1
    26   17   18 1
    27   17   19 1
    28   17   40 1
    29   18   41 1
    30   19   20 1
    31   19   21 1
    32   19   42 1
    33   20   43 1
    34   21   22 1
    35   21   44 1
    36   22   23 ar
    37   22   31 ar
    38   23   24 ar
    39   23   45 1
    40   24   25 ar
    41   25   26 ar
    42   25   31 ar
    43   26   27 1
    44   26   28 ar
    45   27   46 1
    46   27   47 1
    47   28   29 ar
    48   29   30 ar
    49   29   48 1
    50   30   31 ar
@<TRIPOS>SUBSTRUCTURE
     1 ACP         1 GROUP 0 A     ****
@<TRIPOS>MOLECULE
[[5-(6-aminopurin-9-yl)-3,4-dihydroxy-tetrahydrofuran-2-yl]methoxy-hydroxy-phosphoryl]oxy-(phosphonomethyl)phosphinate
   48    50     1     0     0
SMALL
USER_CHARGES

@<TRIPOS>ATOM
      1 PG         -5.7756    1.5367   -0.2635 P.3       1 ACP         1.6292
      2 O1G        -4.8864    0.9462    0.7891 O.2       1 ACP        -0.8674
      3 O2G        -6.3047    0.5030   -1.3868 O.3       1 ACP        -0.7977
      4 O3G        -7.1283    2.2316    0.2817 O.3       1 ACP        -0.7977
      5 PB         -4.3634    4.4078   -0.4753 P.3       1 ACP         1.4910
      6 O1B        -5.5314    5.0885    0.2001 O.co2     1 ACP        -0.8292
      7 O2B        -3.5194    5.1025   -1.5186 O.co2     1 ACP        -0.8292
      8 C3B        -5.0044    2.8492   -1.2377 C.3       1 ACP        -0.6453
      9 PA         -2.5920    4.4092    1.8816 P.3       1 ACP         1.7996
     10 O1A        -3.4579    5.1208    2.8804 O.2       1 ACP        -0.8588
     11 O2A        -1.5023    5.3543    1.1490 O.3       1 ACP        -0.8037
     12 O3A        -3.3985    3.7339    0.6531 O.3       1 ACP        -0.7988
     13 O5'        -1.7334    3.1724    2.4742 O.3       1 ACP        -0.5960
     14 C5'        -0.8811    2.4285    1.6206 C.3       1 ACP         0.1917
     15 C4'        -0.1994    1.3333    2.4288 C.3       1 ACP         0.0908
     16 O4'        -1.1285    0.2356    2.5840 O.3       1 ACP        -0.4111
     17 C3'         1.0324    0.7610    1.7344 C.3       1 ACP         0.0927
     18 O3'         1.9175    0.2377    2.7247 O.3       1 ACP        -0.6127
     19 C2'         0.4468   -0.3802    0.9263 C.3       1 ACP         0.1095
     20 O2'         1.3993   -1.3703    0.5961 O.3       1 ACP        -0.5953
     21 C1'        -0.6159   -0.9100    1.8769 C.3       1 ACP         0.4273
     22 N9         -1.7127   -1.6108    1.2130 N.pl3     1 ACP        -0.6934
     23 C8         -1.6230   -2.3308    0.0513 C.ar      1 ACP         0.5422
     24 N7         -2.7800   -2.8517   -0.3004 N.2       1 ACP        -0.5596
     25 C5         -3.6574   -2.4511    0.6758 C.ar      1 ACP        -0.2259
     26 C6         -5.0170   -2.6775    0.8654 C.ar      1 ACP         0.7526
     27 N6         -5.7504   -3.4510   -0.0504 N.pl3     1 ACP        -0.9660
     28 N1         -5.6292   -2.1415    1.9486 N.ar      1 ACP        -0.8027
     29 C2         -4.8703   -1.4055    2.7961 C.ar      1 ACP         0.6758
     30 N3         -3.5527   -1.1170    2.7199 N.ar      1 ACP        -0.7221
     31 C4         -3.0124   -1.6774    1.6275 C.ar      1 ACP         0.5858
     32 HOG2       -6.8408   -0.2694   -1.1073 H         1 ACP         0.4705
     33 HOG3       -7.7485    2.6349   -0.3625 H         1 ACP         0.4705
     34 H3B1       -4.1551    2.4006   -1.7654 H         1 ACP         0.1189
     35 H3B2       -5.7257    3.1611   -2.0016 H         1 ACP         0.1189
     36 HOA2       -0.8312    5.8158    1.6955 H         1 ACP         0.4679
     37 H5'1       -1.4795    1.9921    0.8142 H         1 ACP         0.0587
     38 H5'2       -0.1362    3.1035    1.1868 H         1 ACP         0.0587
     39 H4'         0.0402    1.7079    3.4342 H         1 ACP         0.0938
     40 H3'         1.5907    1.4859    1.1353 H         1 ACP         0.0597
     41 HO3'        2.6839   -0.1150    2.2479 H         1 ACP         0.4554
     42 H2'        -0.0017    0.0018    0.0005 H         1 ACP         0.0710
     43 HO2'        2.0953   -0.9375    0.0709 H         1 ACP         0.4360
     44 H1'        -0.1998   -1.6319    2.6178 H         1 ACP         0.1247
     45 H8         -0.6932   -2.4401   -0.4900 H         1 ACP         0.0875
     46 HN61       -5.2972   -3.8032   -0.8723 H         1 ACP         0.4433
     47 HN62       -6.7381   -3.5629    0.0791 H         1 ACP         0.4433
     48 H2         -5.3929   -0.9917    3.6520 H         1 ACP         0.0459
@<TRIPOS>BOND
     1    1    2 2
     2    1    3 1
     3    1    4 1
     4    1    8 1
     5    3   32 1
     6    4   33 1
     7    5    6 2
     8    5    7 1
     9    5    8 1
    10    5   12 1
    11    8   34 1
    12    8   35 1
    13    9   10 2
    14    9   11 1
    15    9   12 1
    16    9   13 1
    17   11   36 1
    18   13   14 1
    19   14   15 1
    20   14   37 1
    21   14   38 1
    22   15   16 1
    23   15   17 1
    24   15   39 1
    25   16   21 1
    26   17   18 1
    27   17   19 1
    28   17   40 1
    29   18   41 1
    30   19   20 1
    31   19   21 1
    32   19   42 1
    33   20   43 1
    34   21   22 1
    35   21   44 1
    36   22   23 ar
    37   22   31 ar
    38   23   24 ar
    39   23   45 1
    40   24   25 ar
    41   25   26 ar
    42   25   31 ar
    43   26   27 1
    44   26   28 ar
    45   27   46 1
    46   27   47 1
    47   28   29 ar
    48   29   30 ar
    49   29   48 1
    50   30   31 ar
@<TRIPOS>SUBSTRUCTURE
     1 ACP         1 GROUP 0 A     ****
@<TRIPOS>MOLECULE
[[5-(6-aminopurin-9-yl)-3,4-dihydroxy-tetrahydrofuran-2-yl]methoxy-hydroxy-phosphoryl]oxy-(phosphonomethyl)phosphinate
   48    50     1     0     0
SMALL
USER_CHARGES

@<TRIPOS>ATOM
      1 PG         -4.8812    6.8789    1.8639 P.3       1 ACP         1.6292
      2 O1G        -6.3619    6.6992    2.0142 O.2       1 ACP        -0.8674
      3 O2G        -4.2944    6.6077    0.3833 O.3       1 ACP        -0.7977
      4 O3G        -4.3203    8.3484    2.2324 O.3       1 ACP        -0.7977
      5 PB         -2.0405    5.8173    2.9061 P.3       1 ACP         1.4910
      6 O1B        -1.5748    4.7761    3.8974 O.co2     1 ACP        -0.8292
      7 O2B        -1.6156    7.2645    2.9983 O.co2     1 ACP        -0.8292
      8 C3B        -3.8900    5.7877    2.9095 C.3       1 ACP        -0.6453
      9 PA         -0.4421    4.8274    0.6350 P.3       1 ACP         1.7996
     10 O1A         0.5938    5.9089    0.5310 O.2       1 ACP        -0.8588
     11 O2A        -0.9616    4.2610   -0.7886 O.3       1 ACP        -0.8037
     12 O3A        -1.8029    5.2700    1.3888 O.3       1 ACP        -0.7988
     13 O5'         0.0170    3.5129    1.4593 O.3       1 ACP        -0.5960
     14 C5'        -0.8811    2.4285    1.6206 C.3       1 ACP         0.1917
     15 C4'        -0.1994    1.3333    2.4288 C.3       1 ACP         0.0908
     16 O4'        -1.1285    0.2356    2.5840 O.3       1 ACP        -0.4111
     17 C3'         1.0324    0.7610    1.7344 C.3       1 ACP         0.0927
     18 O3'         1.9175    0.2377    2.7247 O.3       1 ACP        -0.6127
     19 C2'         0.4468   -0.3802    0.9263 C.3       1 ACP         0.1095
     20 O2'         1.3993   -1.3703    0.5961 O.3       1 ACP        -0.5953
     21 C1'        -0.6159   -0.9100    1.8769 C.3       1 ACP         0.4273
     22 N9         -1.7127   -1.6108    1.2130 N.pl3     1 ACP        -0.6934
     23 C8         -2.0877   -2.9101    1.4304 C.ar      1 ACP         0.5422
     24 N7         -3.1152   -3.2613    0.6857 N.2       1 ACP        -0.5596
     25 C5         -3.4186   -2.1409   -0.0462 C.ar      1 ACP        -0.2259
     26 C6         -4.3953   -1.8809   -1.0023 C.ar      1 ACP         0.7526
     27 N6         -5.3118   -2.8767   -1.3812 N.pl3     1 ACP        -0.9660
     28 N1         -4.4538   -0.6507   -1.5667 N.ar      1 ACP        -0.8027
     29 C2         -3.5442    0.2679   -1.1609 C.ar      1 ACP         0.6758
     30 N3         -2.5561    0.1361   -0.2491 N.ar      1 ACP        -0.7221
     31 C4         -2.5568   -1.1019    0.2674 C.ar      1 ACP         0.5858
     32 HOG2       -3.3314    6.7106    0.2274 H         1 ACP         0.4705
     33 HOG3       -4.6512    9.1232    1.7300 H         1 ACP         0.4705
     34 H3B1       -4.1923    5.9746    3.9461 H         1 ACP         0.1189
     35 H3B2       -4.1759    4.7560    2.6750 H         1 ACP         0.1189
     36 HOA2       -1.3885    4.8804   -1.4181 H         1 ACP         0.4679
     37 H5'1       -1.7775    2.7842    2.1389 H         1 ACP         0.0587
     38 H5'2       -1.1659    2.0534    0.6322 H         1 ACP         0.0587
     39 H4'         0.0402    1.7079    3.4342 H         1 ACP         0.0938
     40 H3'         1.5907    1.4859    1.1353 H         1 ACP         0.0597
     41 HO3'        2.1521    0.9800    3.3017 H         1 ACP         0.4554
     42 H2'        -0.0017    0.0018    0.0005 H         1 ACP         0.0710
     43 HO2'        0.9369   -2.0558    0.0825 H         1 ACP         0.4360
     44 H1'        -0.1998   -1.6319    2.6178 H         1 ACP         0.1247
     45 H8         -1.5778   -3.5473    2.1399 H         1 ACP         0.0875
     46 HN61       -5.2294   -3.7965   -0.9914 H         1 ACP         0.4433
     47 HN62       -5.9774   -2.6837   -2.1055 H         1 ACP         0.4433
     48 H2         -3.6201    1.2414   -1.6336 H         1 ACP         0.0459
@<TRIPOS>BOND
     1    1    2 2
     2    1    3 1
     3    1    4 1
     4    1    8 1
     5    3   32 1
     6    4   33 1
     7    5    6 2
     8    5    7 1
     9    5    8 1
    10    5   12 1
    11    8   34 1
    12    8   35 1
    13    9   10 2
    14    9   11 1
    15    9   12 1
    16    9   13 1
    17   11   36 1
    18   13   14 1
    19   14   15 1
    20   14   37 1
    21   14   38 1
    22   15   16 1
    23   15   17 1
    24   15   39 1
    25   16   21 1
    26   17   18 1
    27   17   19 1
    28   17   40 1
    29   18   41 1
    30   19   20 1
    31   19   21 1
    32   19   42 1
    33   20   43 1
    34   21   22 1
    35   21   44 1
    36   22   23 ar
    37   22   31 ar
    38   23   24 ar
    39   23   45 1
    40   24   25 ar
    41   25   26 ar
    42   25   31 ar
    43   26   27 1
    44   26   28 ar
    45   27   46 1
    46   27   47 1
    47   28   29 ar
    48   29   30 ar
    49   29   48 1
    50   30   31 ar
@<TRIPOS>SUBSTRUCTURE
     1 ACP         1 GROUP 0 A     ****
@<TRIPOS>MOLECULE
[[5-(6-aminopurin-9-yl)-3,4-dihydroxy-tetrahydrofuran-2-yl]methoxy-hydroxy-phosphoryl]oxy-(phosphonomethyl)phosphinate
   48    50     1     0     0
SMALL
USER_CHARGES

@<TRIPOS>ATOM
      1 PG         -3.3484    5.9704   -2.5307 P.3       1 ACP         1.6292
      2 O1G        -2.2961    6.8420   -1.9140 O.2       1 ACP        -0.8674
      3 O2G        -4.8574    6.5426   -2.4552 O.3       1 ACP        -0.7977
      4 O3G        -3.1442    5.6412   -4.0990 O.3       1 ACP        -0.7977
      5 PB         -3.9014    4.0850    0.0035 P.3       1 ACP         1.4910
      6 O1B        -3.9281    2.5951    0.2552 O.co2     1 ACP        -0.8292
      7 O2B        -5.0805    4.9764    0.3174 O.co2     1 ACP        -0.8292
      8 C3B        -3.4882    4.3311   -1.7826 C.3       1 ACP        -0.6453
      9 PA         -2.0141    4.7372    2.1728 P.3       1 ACP         1.7996
     10 O1A        -2.9324    5.4191    3.1452 O.2       1 ACP        -0.8588
     11 O2A        -0.5452    5.4055    2.0600 O.3       1 ACP        -0.8037
     12 O3A        -2.5444    4.7218    0.6450 O.3       1 ACP        -0.7988
     13 O5'        -1.7334    3.1724    2.4742 O.3       1 ACP        -0.5960
     14 C5'        -0.8811    2.4285    1.6206 C.3       1 ACP         0.1917
     15 C4'        -0.1994    1.3333    2.4288 C.3       1 ACP         0.0908
     16 O4'        -1.1285    0.2356    2.5840 O.3       1 ACP        -0.4111
     17 C3'         1.0324    0.7610    1.7344 C.3       1 ACP         0.0927
     18 O3'         1.9175    0.2377    2.7247 O.3       1 ACP        -0.6127
     19 C2'         0.4468   -0.3802    0.9263 C.3       1 ACP         0.1095
     20 O2'         1.3993   -1.3703    0.5961 O.3       1 ACP        -0.5953
     21 C1'        -0.6159   -0.9100    1.8769 C.3       1 ACP         0.4273
     22 N9         -1.7127   -1.6108    1.2130 N.pl3     1 ACP        -0.6934
     23 C8         -2.5476   -1.0844    0.2632 C.ar      1 ACP         0.5422
     24 N7         -3.4391   -1.9591   -0.1536 N.2       1 ACP        -0.5596
     25 C5         -3.1701   -3.1016    0.5574 C.ar      1 ACP        -0.2259
     26 C6         -3.7593   -4.3620    0.5656 C.ar      1 ACP         0.7526
     27 N6         -4.8512   -4.6493   -0.2712 N.pl3     1 ACP        -0.9660
     28 N1         -3.2659   -5.3144    1.3932 N.ar      1 ACP        -0.8027
     29 C2         -2.2122   -4.9785    2.1759 C.ar      1 ACP         0.6758
     30 N3         -1.5595   -3.7985    2.2572 N.ar      1 ACP        -0.7221
     31 C4         -2.0986   -2.9054    1.4140 C.ar      1 ACP         0.5858
     32 HOG2       -5.2565    6.7164   -1.5761 H         1 ACP         0.4705
     33 HOG3       -3.1203    6.3824   -4.7412 H         1 ACP         0.4705
     34 H3B1       -4.2528    3.7849   -2.3466 H         1 ACP         0.1189
     35 H3B2       -2.5379    3.8106   -1.9473 H         1 ACP         0.1189
     36 HOA2        0.0181    5.4505    2.8618 H         1 ACP         0.4679
     37 H5'1       -1.4795    1.9921    0.8142 H         1 ACP         0.0587
     38 H5'2       -0.1362    3.1035    1.1868 H         1 ACP         0.0587
     39 H4'         0.0402    1.7079    3.4342 H         1 ACP         0.0938
     40 H3'         1.5907    1.4859    1.1353 H         1 ACP         0.0597
     41 HO3'        2.6839   -0.1150    2.2479 H         1 ACP         0.4554
     42 H2'        -0.0017    0.0018    0.0005 H         1 ACP         0.0710
     43 HO2'        2.0953   -0.9375    0.0709 H         1 ACP         0.4360
     44 H1'        -0.1998   -1.6319    2.6178 H         1 ACP         0.1247
     45 H8         -2.4576   -0.0639   -0.0831 H         1 ACP         0.0875
     46 HN61       -5.2371   -3.9234   -0.8448 H         1 ACP         0.4433
     47 HN62       -5.2909   -5.5485   -0.2160 H         1 ACP         0.4433
     48 H2         -1.8433   -5.7650    2.8259 H         1 ACP         0.0459
@<TRIPOS>BOND
     1    1    2 2
     2    1    3 1
     3    1    4 1
     4    1    8 1
     5    3   32 1
     6    4   33 1
     7    5    6 2
     8    5    7 1
     9    5    8 1
    10    5   12 1
    11    8   34 1
    12    8   35 1
    13    9   10 2
    14    9   11 1
    15    9   12 1
    16    9   13 1
    17   11   36 1
    18   13   14 1
    19   14   15 1
    20   14   37 1
    21   14   38 1
    22   15   16 1
    23   15   17 1
    24   15   39 1
    25   16   21 1
    26   17   18 1
    27   17   19 1
    28   17   40 1
    29   18   41 1
    30   19   20 1
    31   19   21 1
    32   19   42 1
    33   20   43 1
    34   21   22 1
    35   21   44 1
    36   22   23 ar
    37   22   31 ar
    38   23   24 ar
    39   23   45 1
    40   24   25 ar
    41   25   26 ar
    42   25   31 ar
    43   26   27 1
    44   26   28 ar
    45   27   46 1
    46   27   47 1
    47   28   29 ar
    48   29   30 ar
    49   29   48 1
    50   30   31 ar
@<TRIPOS>SUBSTRUCTURE
     1 ACP         1 GROUP 0 A     ****
@<TRIPOS>MOLECULE
[[5-(6-aminopurin-9-yl)-3,4-dihydroxy-tetrahydrofuran-2-yl]methoxy-hydroxy-phosphoryl]oxy-(phosphonomethyl)phosphinate
   48    50     1     0     0
SMALL
USER_CHARGES

@<TRIPOS>ATOM
      1 PG         -1.6528   -2.7893   -3.4613 P.3       1 ACP         1.6292
      2 O1G        -1.3025   -1.8597   -2.3386 O.2       1 ACP        -0.8674
      3 O2G        -0.3976   -3.4537   -4.2315 O.3       1 ACP        -0.7977
      4 O3G        -2.5633   -4.0592   -3.0514 O.3       1 ACP        -0.7977
      5 PB         -1.9530   -0.5917   -5.7772 P.3       1 ACP         1.4910
      6 O1B        -3.0143   -0.2289   -6.7900 O.co2     1 ACP        -0.8292
      7 O2B        -0.5363   -0.9293   -6.1804 O.co2     1 ACP        -0.8292
      8 C3B        -2.5987   -2.0204   -4.7956 C.3       1 ACP        -0.6453
      9 PA         -1.6646    2.1132   -4.6402 P.3       1 ACP         1.7996
     10 O1A        -2.6285    2.8802   -5.4982 O.2       1 ACP        -0.8588
     11 O2A        -0.1202    2.2215   -5.1097 O.3       1 ACP        -0.8037
     12 O3A        -1.9353    0.5196   -4.5844 O.3       1 ACP        -0.7988
     13 O5'        -1.6512    2.5329   -3.0776 O.3       1 ACP        -0.5960
     14 C5'        -0.7794    1.8744   -2.1748 C.3       1 ACP         0.1917
     15 C4'        -0.9699    2.4597   -0.7819 C.3       1 ACP         0.0908
     16 O4'        -2.1475    1.8640   -0.2014 O.3       1 ACP        -0.4111
     17 C3'         0.1697    2.1347    0.1695 C.3       1 ACP         0.0927
     18 O3'         0.1809    3.0982    1.2223 O.3       1 ACP        -0.6127
     19 C2'        -0.2543    0.7880    0.7187 C.3       1 ACP         0.1095
     20 O2'         0.3606    0.4944    1.9582 O.3       1 ACP        -0.5953
     21 C1'        -1.7682    0.9516    0.8548 C.3       1 ACP         0.4273
     22 N9         -2.5926   -0.2553    0.7436 N.pl3     1 ACP        -0.6934
     23 C8         -3.8700   -0.3163    0.2529 C.ar      1 ACP         0.5422
     24 N7         -4.3522   -1.5414    0.2751 N.2       1 ACP        -0.5596
     25 C5         -3.3434   -2.3070    0.8036 C.ar      1 ACP        -0.2259
     26 C6         -3.2433   -3.6673    1.0777 C.ar      1 ACP         0.7526
     27 N6         -4.3152   -4.5349    0.8066 N.pl3     1 ACP        -0.9660
     28 N1         -2.0949   -4.1491    1.6112 N.ar      1 ACP        -0.8027
     29 C2         -1.0966   -3.2647    1.8500 C.ar      1 ACP         0.6758
     30 N3         -1.0746   -1.9321    1.6291 N.ar      1 ACP        -0.7221
     31 C4         -2.2390   -1.5249    1.1020 C.ar      1 ACP         0.5858
     32 HOG2        0.2520   -2.8678   -4.6755 H         1 ACP         0.4705
     33 HOG3       -2.2213   -4.6946   -2.3868 H         1 ACP         0.4705
     34 H3B1       -2.8258   -2.8077   -5.5233 H         1 ACP         0.1189
     35 H3B2       -3.5551   -1.6899   -4.3747 H         1 ACP         0.1189
     36 HOA2        0.1258    1.9096   -6.0065 H         1 ACP         0.4679
     37 H5'1       -1.0110    0.8043   -2.1746 H         1 ACP         0.0587
     38 H5'2        0.2528    2.0159   -2.5111 H         1 ACP         0.0587
     39 H4'        -1.1469    3.5409   -0.8523 H         1 ACP         0.0938
     40 H3'         1.1601    2.1310   -0.2934 H         1 ACP         0.0597
     41 HO3'        0.3098    3.9616    0.8017 H         1 ACP         0.4554
     42 H2'        -0.0024   -0.0091    0.0062 H         1 ACP         0.0710
     43 HO2'        1.3225    0.4909    1.8095 H         1 ACP         0.4360
     44 H1'        -2.0584    1.4255    1.8301 H         1 ACP         0.1247
     45 H8         -4.3937    0.5597   -0.1045 H         1 ACP         0.0875
     46 HN61       -5.1761   -4.1600    0.4557 H         1 ACP         0.4433
     47 HN62       -4.2402   -5.5032    1.0550 H         1 ACP         0.4433
     48 H2         -0.1923   -3.6849    2.2775 H         1 ACP         0.0459
@<TRIPOS>BOND
     1    1    2 2
     2    1    3 1
     3    1    4 1
     4    1    8 1
     5    3   32 1
     6    4   33 1
     7    5    6 2
     8    5    7 1
     9    5    8 1
    10    5   12 1
    11    8   34 1
    12    8   35 1
    13    9   10 2
    14    9   11 1
    15    9   12 1
    16    9   13 1
    17   11   36 1
    18   13   14 1
    19   14   15 1
    20   14   37 1
    21   14   38 1
    22   15   16 1
    23   15   17 1
    24   15   39 1
    25   16   21 1
    26   17   18 1
    27   17   19 1
    28   17   40 1
    29   18   41 1
    30   19   20 1
    31   19   21 1
    32   19   42 1
    33   20   43 1
    34   21   22 1
    35   21   44 1
    36   22   23 ar
    37   22   31 ar
    38   23   24 ar
    39   23   45 1
    40   24   25 ar
    41   25   26 ar
    42   25   31 ar
    43   26   27 1
    44   26   28 ar
    45   27   46 1
    46   27   47 1
    47   28   29 ar
    48   29   30 ar
    49   29   48 1
    50   30   31 ar
@<TRIPOS>SUBSTRUCTURE
     1 ACP         1 GROUP 0 A     ****
@<TRIPOS>MOLECULE
[[5-(6-aminopurin-9-yl)-3,4-dihydroxy-tetrahydrofuran-2-yl]methoxy-hydroxy-phosphoryl]oxy-(phosphonomethyl)phosphinate
   48    50     1     0     0
SMALL
USER_CHARGES

@<TRIPOS>ATOM
      1 PG         -3.7723    4.2872    5.1355 P.3       1 ACP         1.6292
      2 O1G        -3.1596    3.0432    4.5658 O.2       1 ACP        -0.8674
      3 O2G        -5.2452    4.6535    4.5818 O.3       1 ACP        -0.7977
      4 O3G        -3.9556    4.2973    6.7405 O.3       1 ACP        -0.7977
      5 PB         -2.4515    6.3963    3.1130 P.3       1 ACP         1.4910
      6 O1B        -1.6491    7.6691    3.2529 O.co2     1 ACP        -0.8292
      7 O2B        -3.7406    6.3387    2.3266 O.co2     1 ACP        -0.8292
      8 C3B        -2.8245    5.7937    4.8216 C.3       1 ACP        -0.6453
      9 PA         -0.5525    5.0215    1.3253 P.3       1 ACP         1.7996
     10 O1A         0.4935    6.0854    1.1588 O.2       1 ACP        -0.8588
     11 O2A        -1.6302    4.9500    0.1208 O.3       1 ACP        -0.8037
     12 O3A        -1.4691    5.1810    2.6482 O.3       1 ACP        -0.7988
     13 O5'         0.0170    3.5129    1.4593 O.3       1 ACP        -0.5960
     14 C5'        -0.8811    2.4285    1.6206 C.3       1 ACP         0.1917
     15 C4'        -0.1994    1.3333    2.4288 C.3       1 ACP         0.0908
     16 O4'        -1.1285    0.2356    2.5840 O.3       1 ACP        -0.4111
     17 C3'         1.0324    0.7610    1.7344 C.3       1 ACP         0.0927
     18 O3'         1.9175    0.2377    2.7247 O.3       1 ACP        -0.6127
     19 C2'         0.4468   -0.3802    0.9263 C.3       1 ACP         0.1095
     20 O2'         1.3993   -1.3703    0.5961 O.3       1 ACP        -0.5953
     21 C1'        -0.6159   -0.9100    1.8769 C.3       1 ACP         0.4273
     22 N9         -1.7127   -1.6108    1.2130 N.pl3     1 ACP        -0.6934
     23 C8         -2.0877   -2.9101    1.4304 C.ar      1 ACP         0.5422
     24 N7         -3.1152   -3.2613    0.6857 N.2       1 ACP        -0.5596
     25 C5         -3.4186   -2.1409   -0.0462 C.ar      1 ACP        -0.2259
     26 C6         -4.3953   -1.8809   -1.0023 C.ar      1 ACP         0.7526
     27 N6         -5.3118   -2.8767   -1.3812 N.pl3     1 ACP        -0.9660
     28 N1         -4.4538   -0.6507   -1.5667 N.ar      1 ACP        -0.8027
     29 C2         -3.5442    0.2679   -1.1609 C.ar      1 ACP         0.6758
     30 N3         -2.5561    0.1361   -0.2491 N.ar      1 ACP        -0.7221
     31 C4         -2.5568   -1.1019    0.2674 C.ar      1 ACP         0.5858
     32 HOG2       -5.6940    5.4573    4.9203 H         1 ACP         0.4705
     33 HOG3       -4.5148    3.6088    7.1594 H         1 ACP         0.4705
     34 H3B1       -3.3508    6.6143    5.3222 H         1 ACP         0.1189
     35 H3B2       -1.8553    5.6845    5.3216 H         1 ACP         0.1189
     36 HOA2       -2.1821    5.7384   -0.0690 H         1 ACP         0.4679
     37 H5'1       -1.7775    2.7842    2.1389 H         1 ACP         0.0587
     38 H5'2       -1.1659    2.0534    0.6322 H         1 ACP         0.0587
     39 H4'         0.0402    1.7079    3.4342 H         1 ACP         0.0938
     40 H3'         1.5907    1.4859    1.1353 H         1 ACP         0.0597
     41 HO3'        2.6839   -0.1150    2.2479 H         1 ACP         0.4554
     42 H2'        -0.0017    0.0018    0.0005 H         1 ACP         0.0710
     43 HO2'        0.9369   -2.0558    0.0825 H         1 ACP         0.4360
     44 H1'        -0.1998   -1.6319    2.6178 H         1 ACP         0.1247
     45 H8         -1.5778   -3.5473    2.1399 H         1 ACP         0.0875
     46 HN61       -5.2294   -3.7965   -0.9914 H         1 ACP         0.4433
     47 HN62       -5.9774   -2.6837   -2.1055 H         1 ACP         0.4433
     48 H2         -3.6201    1.2414   -1.6336 H         1 ACP         0.0459
@<TRIPOS>BOND
     1    1    2 2
     2    1    3 1
     3    1    4 1
     4    1    8 1
     5    3   32 1
     6    4   33 1
     7    5    6 2
     8    5    7 1
     9    5    8 1
    10    5   12 1
    11    8   34 1
    12    8   35 1
    13    9   10 2
    14    9   11 1
    15    9   12 1
    16    9   13 1
    17   11   36 1
    18   13   14 1
    19   14   15 1
    20   14   37 1
    21   14   38 1
    22   15   16 1
    23   15   17 1
    24   15   39 1
    25   16   21 1
    26   17   18 1
    27   17   19 1
    28   17   40 1
    29   18   41 1
    30   19   20 1
    31   19   21 1
    32   19   42 1
    33   20   43 1
    34   21   22 1
    35   21   44 1
    36   22   23 ar
    37   22   31 ar
    38   23   24 ar
    39   23   45 1
    40   24   25 ar
    41   25   26 ar
    42   25   31 ar
    43   26   27 1
    44   26   28 ar
    45   27   46 1
    46   27   47 1
    47   28   29 ar
    48   29   30 ar
    49   29   48 1
    50   30   31 ar
@<TRIPOS>SUBSTRUCTURE
     1 ACP         1 GROUP 0 A     ****
@<TRIPOS>MOLECULE
[[5-(6-aminopurin-9-yl)-3,4-dihydroxy-tetrahydrofuran-2-yl]methoxy-hydroxy-phosphoryl]oxy-(phosphonomethyl)phosphinate
   48    50     1     0     0
SMALL
USER_CHARGES

@<TRIPOS>ATOM
      1 PG         -4.3643    3.6251   -2.2183 P.3       1 ACP         1.6292
      2 O1G        -4.0444    2.4335   -1.3668 O.2       1 ACP        -0.8674
      3 O2G        -4.3078    3.3754   -3.8134 O.3       1 ACP        -0.7977
      4 O3G        -5.8267    4.2709   -1.9856 O.3       1 ACP        -0.7977
      5 PB         -3.0530    5.8724   -0.3439 P.3       1 ACP         1.4910
      6 O1B        -4.4103    6.4045    0.0539 O.co2     1 ACP        -0.8292
      7 O2B        -1.8364    6.7629   -0.4448 O.co2     1 ACP        -0.8292
      8 C3B        -3.2530    5.0301   -1.9785 C.3       1 ACP        -0.6453
      9 PA         -2.5516    4.3890    2.1542 P.3       1 ACP         1.7996
     10 O1A        -3.7879    4.7308    2.9341 O.2       1 ACP        -0.8588
     11 O2A        -1.2616    5.2960    2.5158 O.3       1 ACP        -0.8037
     12 O3A        -2.6991    4.5573    0.5525 O.3       1 ACP        -0.7988
     13 O5'        -2.0397    2.8622    2.3121 O.3       1 ACP        -0.5960
     14 C5'        -0.8811    2.4285    1.6206 C.3       1 ACP         0.1917
     15 C4'        -0.1994    1.3333    2.4288 C.3       1 ACP         0.0908
     16 O4'        -1.1285    0.2356    2.5840 O.3       1 ACP        -0.4111
     17 C3'         1.0324    0.7610    1.7344 C.3       1 ACP         0.0927
     18 O3'         1.9175    0.2377    2.7247 O.3       1 ACP        -0.6127
     19 C2'         0.4468   -0.3802    0.9263 C.3       1 ACP         0.1095
     20 O2'         1.3993   -1.3703    0.5961 O.3       1 ACP        -0.5953
     21 C1'        -0.6159   -0.9100    1.8769 C.3       1 ACP         0.4273
     22 N9         -1.7127   -1.6108    1.2130 N.pl3     1 ACP        -0.6934
     23 C8         -1.6011   -2.7426    0.4497 C.ar      1 ACP         0.5422
     24 N7         -2.7657   -3.1449   -0.0147 N.2       1 ACP        -0.5596
     25 C5         -3.6708   -2.2337    0.4686 C.ar      1 ACP        -0.2259
     26 C6         -5.0501   -2.1167    0.3282 C.ar      1 ACP         0.7526
     27 N6         -5.7760   -3.0497   -0.4318 N.pl3     1 ACP        -0.9660
     28 N1         -5.6892   -1.0882    0.9359 N.ar      1 ACP        -0.8027
     29 C2         -4.9364   -0.2212    1.6553 C.ar      1 ACP         0.6758
     30 N3         -3.6016   -0.2290    1.8634 N.ar      1 ACP        -0.7221
     31 C4         -3.0352   -1.2703    1.2354 C.ar      1 ACP         0.5858
     32 HOG2       -4.9010    2.7027   -4.2106 H         1 ACP         0.4705
     33 HOG3       -6.0907    5.0531   -2.5155 H         1 ACP         0.4705
     34 H3B1       -2.2501    4.6999   -2.2719 H         1 ACP         0.1189
     35 H3B2       -3.5511    5.8117   -2.6866 H         1 ACP         0.1189
     36 HOA2       -0.9203    5.2897    3.4355 H         1 ACP         0.4679
     37 H5'1       -1.1760    2.0499    0.6365 H         1 ACP         0.0587
     38 H5'2       -0.2073    3.2811    1.4873 H         1 ACP         0.0587
     39 H4'         0.0402    1.7079    3.4342 H         1 ACP         0.0938
     40 H3'         1.5907    1.4859    1.1353 H         1 ACP         0.0597
     41 HO3'        2.6839   -0.1150    2.2479 H         1 ACP         0.4554
     42 H2'        -0.0017    0.0018    0.0005 H         1 ACP         0.0710
     43 HO2'        2.0953   -0.9375    0.0709 H         1 ACP         0.4360
     44 H1'        -0.1998   -1.6319    2.6178 H         1 ACP         0.1247
     45 H8         -0.6507   -3.2259    0.2692 H         1 ACP         0.0875
     46 HN61       -5.2868   -3.7791   -0.9150 H         1 ACP         0.4433
     47 HN62       -6.7619   -2.9208   -0.5594 H         1 ACP         0.4433
     48 H2         -5.4806    0.5898    2.1277 H         1 ACP         0.0459
@<TRIPOS>BOND
     1    1    2 2
     2    1    3 1
     3    1    4 1
     4    1    8 1
     5    3   32 1
     6    4   33 1
     7    5    6 2
     8    5    7 1
     9    5    8 1
    10    5   12 1
    11    8   34 1
    12    8   35 1
    13    9   10 2
    14    9   11 1
    15    9   12 1
    16    9   13 1
    17   11   36 1
    18   13   14 1
    19   14   15 1
    20   14   37 1
    21   14   38 1
    22   15   16 1
    23   15   17 1
    24   15   39 1
    25   16   21 1
    26   17   18 1
    27   17   19 1
    28   17   40 1
    29   18   41 1
    30   19   20 1
    31   19   21 1
    32   19   42 1
    33   20   43 1
    34   21   22 1
    35   21   44 1
    36   22   23 ar
    37   22   31 ar
    38   23   24 ar
    39   23   45 1
    40   24   25 ar
    41   25   26 ar
    42   25   31 ar
    43   26   27 1
    44   26   28 ar
    45   27   46 1
    46   27   47 1
    47   28   29 ar
    48   29   30 ar
    49   29   48 1
    50   30   31 ar
@<TRIPOS>SUBSTRUCTURE
     1 ACP         1 GROUP 0 A     ****
@<TRIPOS>MOLECULE
[[5-(6-aminopurin-9-yl)-3,4-dihydroxy-tetrahydrofuran-2-yl]methoxy-hydroxy-phosphoryl]oxy-(phosphonomethyl)phosphinate
   48    50     1     0     0
SMALL
USER_CHARGES

@<TRIPOS>ATOM
      1 PG          8.3317    1.8071   -4.0038 P.3       1 ACP         1.6292
      2 O1G         8.6068    0.6378   -4.9008 O.2       1 ACP        -0.8674
      3 O2G         8.9039    1.6786   -2.4985 O.3       1 ACP        -0.7977
      4 O3G         8.9159    3.2243   -4.5135 O.3       1 ACP        -0.7977
      5 PB          5.9795    3.5445   -2.6880 P.3       1 ACP         1.4910
      6 O1B         4.4689    3.5175   -2.7220 O.co2     1 ACP        -0.8292
      7 O2B         6.7722    4.7729   -3.0703 O.co2     1 ACP        -0.8292
      8 C3B         6.5759    2.1541   -3.7522 C.3       1 ACP        -0.6453
      9 PA          6.2292    3.5136    0.2496 P.3       1 ACP         1.7996
     10 O1A         6.6927    4.9186    0.5045 O.2       1 ACP        -0.8588
     11 O2A         6.9320    2.3979    1.1869 O.3       1 ACP        -0.8037
     12 O3A         6.5026    2.9775   -1.2516 O.3       1 ACP        -0.7988
     13 O5'         4.6408    3.2691    0.4376 O.3       1 ACP        -0.5960
     14 C5'         4.0922    1.9801    0.2227 C.3       1 ACP         0.1917
     15 C4'         2.5944    2.0310    0.4653 C.3       1 ACP         0.0908
     16 O4'         1.9327    2.5740   -0.6889 O.3       1 ACP        -0.4111
     17 C3'         1.9685    0.6634    0.6767 C.3       1 ACP         0.0927
     18 O3'         2.1425    0.1975    1.9977 O.3       1 ACP        -0.6127
     19 C2'         0.5176    0.9128    0.3099 C.3       1 ACP         0.1095
     20 O2'        -0.2103    1.4454    1.4152 O.3       1 ACP        -0.5953
     21 C1'         0.6219    1.9765   -0.7844 C.3       1 ACP         0.4273
     22 N9          0.4237    1.4496   -2.1357 N.pl3     1 ACP        -0.6934
     23 C8          1.4026    0.9717   -2.9660 C.ar      1 ACP         0.5422
     24 N7          0.9183    0.5619   -4.1197 N.2       1 ACP        -0.5596
     25 C5         -0.4330    0.7845   -4.0331 C.ar      1 ACP        -0.2259
     26 C6         -1.4794    0.5615   -4.9225 C.ar      1 ACP         0.7526
     27 N6         -1.2378    0.0044   -6.1899 N.pl3     1 ACP        -0.9660
     28 N1         -2.7406    0.8885   -4.5512 N.ar      1 ACP        -0.8027
     29 C2         -2.9113    1.4216   -3.3172 C.ar      1 ACP         0.6758
     30 N3         -1.9824    1.6843   -2.3721 N.ar      1 ACP        -0.7221
     31 C4         -0.7613    1.3370   -2.8054 C.ar      1 ACP         0.5858
     32 HOG2        8.7529    2.4148   -1.8680 H         1 ACP         0.4705
     33 HOG3        9.8831    3.3193   -4.6475 H         1 ACP         0.4705
     34 H3B1        6.1369    2.3227   -4.7421 H         1 ACP         0.1189
     35 H3B2        6.1140    1.2456   -3.3492 H         1 ACP         0.1189
     36 HOA2        6.8297    2.4637    2.1603 H         1 ACP         0.4679
     37 H5'1        4.3024    1.6721   -0.8067 H         1 ACP         0.0587
     38 H5'2        4.5673    1.2730    0.9105 H         1 ACP         0.0587
     39 H4'         2.3752    2.7029    1.3156 H         1 ACP         0.0938
     40 H3'         2.4336   -0.1217   -0.0016 H         1 ACP         0.0597
     41 HO3'        1.7160   -0.6716    2.0397 H         1 ACP         0.4554
     42 H2'         0.0316    0.0155   -0.0339 H         1 ACP         0.0710
     43 HO2'       -0.1608    0.7921    2.1351 H         1 ACP         0.4360
     44 H1'        -0.1474    2.7798   -0.6651 H         1 ACP         0.1247
     45 H8          2.4442    0.9470   -2.6763 H         1 ACP         0.0875
     46 HN61       -0.2955   -0.1901   -6.4713 H         1 ACP         0.4433
     47 HN62       -1.9987   -0.1045   -6.8334 H         1 ACP         0.4433
     48 H2         -3.9335    1.6716   -3.0534 H         1 ACP         0.0459
@<TRIPOS>BOND
     1    1    2 2
     2    1    3 1
     3    1    4 1
     4    1    8 1
     5    3   32 1
     6    4   33 1
     7    5    6 2
     8    5    7 1
     9    5    8 1
    10    5   12 1
    11    8   34 1
    12    8   35 1
    13    9   10 2
    14    9   11 1
    15    9   12 1
    16    9   13 1
    17   11   36 1
    18   13   14 1
    19   14   15 1
    20   14   37 1
    21   14   38 1
    22   15   16 1
    23   15   17 1
    24   15   39 1
    25   16   21 1
    26   17   18 1
    27   17   19 1
    28   17   40 1
    29   18   41 1
    30   19   20 1
    31   19   21 1
    32   19   42 1
    33   20   43 1
    34   21   22 1
    35   21   44 1
    36   22   23 ar
    37   22   31 ar
    38   23   24 ar
    39   23   45 1
    40   24   25 ar
    41   25   26 ar
    42   25   31 ar
    43   26   27 1
    44   26   28 ar
    45   27   46 1
    46   27   47 1
    47   28   29 ar
    48   29   30 ar
    49   29   48 1
    50   30   31 ar
@<TRIPOS>SUBSTRUCTURE
     1 ACP         1 GROUP 0 A     ****
@<TRIPOS>MOLECULE
[[5-(6-aminopurin-9-yl)-3,4-dihydroxy-tetrahydrofuran-2-yl]methoxy-hydroxy-phosphoryl]oxy-(phosphonomethyl)phosphinate
   48    50     1     0     0
SMALL
USER_CHARGES

@<TRIPOS>ATOM
      1 PG          1.2824    6.1741    0.5098 P.3       1 ACP         1.6292
      2 O1G         1.7844    5.3968    1.6893 O.2       1 ACP        -0.8674
      3 O2G         2.2465    7.3667    0.0014 O.3       1 ACP        -0.7977
      4 O3G         1.0113    5.3080   -0.8266 O.3       1 ACP        -0.7977
      5 PB         -1.8430    6.0887    1.2221 P.3       1 ACP         1.4910
      6 O1B        -2.1263    5.1276    0.0908 O.co2     1 ACP        -0.8292
      7 O2B        -2.8558    7.1105    1.6841 O.co2     1 ACP        -0.8292
      8 C3B        -0.2976    7.0069    0.7862 C.3       1 ACP        -0.6453
      9 PA         -1.9391    4.0774    3.3757 P.3       1 ACP         1.7996
     10 O1A        -3.2310    4.4475    4.0450 O.2       1 ACP        -0.8588
     11 O2A        -0.7613    3.6379    4.3940 O.3       1 ACP        -0.8037
     12 O3A        -1.2682    5.2646    2.5062 O.3       1 ACP        -0.7988
     13 O5'        -2.0397    2.8622    2.3121 O.3       1 ACP        -0.5960
     14 C5'        -0.8811    2.4285    1.6206 C.3       1 ACP         0.1917
     15 C4'        -0.1994    1.3333    2.4288 C.3       1 ACP         0.0908
     16 O4'        -1.1285    0.2356    2.5840 O.3       1 ACP        -0.4111
     17 C3'         1.0324    0.7610    1.7344 C.3       1 ACP         0.0927
     18 O3'         1.9175    0.2377    2.7247 O.3       1 ACP        -0.6127
     19 C2'         0.4468   -0.3802    0.9263 C.3       1 ACP         0.1095
     20 O2'         1.3993   -1.3703    0.5961 O.3       1 ACP        -0.5953
     21 C1'        -0.6159   -0.9100    1.8769 C.3       1 ACP         0.4273
     22 N9         -1.7127   -1.6108    1.2130 N.pl3     1 ACP        -0.6934
     23 C8         -2.8641   -1.0399    0.7392 C.ar      1 ACP         0.5422
     24 N7         -3.6659   -1.9257    0.1858 N.2       1 ACP        -0.5596
     25 C5         -3.0053   -3.1223    0.3069 C.ar      1 ACP        -0.2259
     26 C6         -3.3321   -4.4178   -0.0813 C.ar      1 ACP         0.7526
     27 N6         -4.5476   -4.6866   -0.7335 N.pl3     1 ACP        -0.9660
     28 N1         -2.4608   -5.4225    0.1773 N.ar      1 ACP        -0.8027
     29 C2         -1.3053   -5.1020    0.8081 C.ar      1 ACP         0.6758
     30 N3         -0.8788   -3.8921    1.2315 N.ar      1 ACP        -0.7221
     31 C4         -1.7870   -2.9477    0.9438 C.ar      1 ACP         0.5858
     32 HOG2        1.9677    7.9084   -0.7673 H         1 ACP         0.4705
     33 HOG3        1.7562    4.8168   -1.2341 H         1 ACP         0.4705
     34 H3B1       -0.1412    7.7330    1.5919 H         1 ACP         0.1189
     35 H3B2       -0.5317    7.5799   -0.1183 H         1 ACP         0.1189
     36 HOA2       -0.4545    4.2797    5.0694 H         1 ACP         0.4679
     37 H5'1       -1.1760    2.0499    0.6365 H         1 ACP         0.0587
     38 H5'2       -0.2073    3.2811    1.4873 H         1 ACP         0.0587
     39 H4'         0.0402    1.7079    3.4342 H         1 ACP         0.0938
     40 H3'         1.5907    1.4859    1.1353 H         1 ACP         0.0597
     41 HO3'        2.6839   -0.1150    2.2479 H         1 ACP         0.4554
     42 H2'        -0.0017    0.0018    0.0005 H         1 ACP         0.0710
     43 HO2'        2.0953   -0.9375    0.0709 H         1 ACP         0.4360
     44 H1'        -0.1998   -1.6319    2.6178 H         1 ACP         0.1247
     45 H8         -3.0609    0.0200    0.8250 H         1 ACP         0.0875
     46 HN61       -5.2046   -3.9433   -0.8775 H         1 ACP         0.4433
     47 HN62       -4.7849   -5.6332   -0.9625 H         1 ACP         0.4433
     48 H2         -0.6318   -5.9307    0.9993 H         1 ACP         0.0459
@<TRIPOS>BOND
     1    1    2 2
     2    1    3 1
     3    1    4 1
     4    1    8 1
     5    3   32 1
     6    4   33 1
     7    5    6 2
     8    5    7 1
     9    5    8 1
    10    5   12 1
    11    8   34 1
    12    8   35 1
    13    9   10 2
    14    9   11 1
    15    9   12 1
    16    9   13 1
    17   11   36 1
    18   13   14 1
    19   14   15 1
    20   14   37 1
    21   14   38 1
    22   15   16 1
    23   15   17 1
    24   15   39 1
    25   16   21 1
    26   17   18 1
    27   17   19 1
    28   17   40 1
    29   18   41 1
    30   19   20 1
    31   19   21 1
    32   19   42 1
    33   20   43 1
    34   21   22 1
    35   21   44 1
    36   22   23 ar
    37   22   31 ar
    38   23   24 ar
    39   23   45 1
    40   24   25 ar
    41   25   26 ar
    42   25   31 ar
    43   26   27 1
    44   26   28 ar
    45   27   46 1
    46   27   47 1
    47   28   29 ar
    48   29   30 ar
    49   29   48 1
    50   30   31 ar
@<TRIPOS>SUBSTRUCTURE
     1 ACP         1 GROUP 0 A     ****
@<TRIPOS>MOLECULE
[[5-(6-aminopurin-9-yl)-3,4-dihydroxy-tetrahydrofuran-2-yl]methoxy-hydroxy-phosphoryl]oxy-(phosphonomethyl)phosphinate
   48    50     1     0     0
SMALL
USER_CHARGES

@<TRIPOS>ATOM
      1 PG         -1.5278    5.3687    6.0068 P.3       1 ACP         1.6292
      2 O1G        -0.6145    4.2696    5.5538 O.2       1 ACP        -0.8674
      3 O2G        -2.3497    5.0742    7.3661 O.3       1 ACP        -0.7977
      4 O3G        -0.8139    6.7892    6.2938 O.3       1 ACP        -0.7977
      5 PB         -2.4515    6.3963    3.1130 P.3       1 ACP         1.4910
      6 O1B        -1.6491    7.6691    3.2529 O.co2     1 ACP        -0.8292
      7 O2B        -3.7406    6.3387    2.3266 O.co2     1 ACP        -0.8292
      8 C3B        -2.8245    5.7937    4.8216 C.3       1 ACP        -0.6453
      9 PA         -0.5525    5.0215    1.3253 P.3       1 ACP         1.7996
     10 O1A         0.4935    6.0854    1.1588 O.2       1 ACP        -0.8588
     11 O2A        -1.6302    4.9500    0.1208 O.3       1 ACP        -0.8037
     12 O3A        -1.4691    5.1810    2.6482 O.3       1 ACP        -0.7988
     13 O5'         0.0170    3.5129    1.4593 O.3       1 ACP        -0.5960
     14 C5'        -0.8811    2.4285    1.6206 C.3       1 ACP         0.1917
     15 C4'        -0.1994    1.3333    2.4288 C.3       1 ACP         0.0908
     16 O4'        -1.1285    0.2356    2.5840 O.3       1 ACP        -0.4111
     17 C3'         1.0324    0.7610    1.7344 C.3       1 ACP         0.0927
     18 O3'         1.9175    0.2377    2.7247 O.3       1 ACP        -0.6127
     19 C2'         0.4468   -0.3802    0.9263 C.3       1 ACP         0.1095
     20 O2'         1.3993   -1.3703    0.5961 O.3       1 ACP        -0.5953
     21 C1'        -0.6159   -0.9100    1.8769 C.3       1 ACP         0.4273
     22 N9         -1.7127   -1.6108    1.2130 N.pl3     1 ACP        -0.6934
     23 C8         -2.0877   -2.9101    1.4304 C.ar      1 ACP         0.5422
     24 N7         -3.1152   -3.2613    0.6857 N.2       1 ACP        -0.5596
     25 C5         -3.4186   -2.1409   -0.0462 C.ar      1 ACP        -0.2259
     26 C6         -4.3953   -1.8809   -1.0023 C.ar      1 ACP         0.7526
     27 N6         -5.3118   -2.8767   -1.3812 N.pl3     1 ACP        -0.9660
     28 N1         -4.4538   -0.6507   -1.5667 N.ar      1 ACP        -0.8027
     29 C2         -3.5442    0.2679   -1.1609 C.ar      1 ACP         0.6758
     30 N3         -2.5561    0.1361   -0.2491 N.ar      1 ACP        -0.7221
     31 C4         -2.5568   -1.1019    0.2674 C.ar      1 ACP         0.5858
     32 HOG2       -1.8528    4.8972    8.1932 H         1 ACP         0.4705
     33 HOG3       -1.3627    7.5453    6.5928 H         1 ACP         0.4705
     34 H3B1       -3.4501    4.9027    4.6969 H         1 ACP         0.1189
     35 H3B2       -3.4541    6.5633    5.2826 H         1 ACP         0.1189
     36 HOA2       -2.1821    5.7384   -0.0690 H         1 ACP         0.4679
     37 H5'1       -1.7775    2.7842    2.1389 H         1 ACP         0.0587
     38 H5'2       -1.1659    2.0534    0.6322 H         1 ACP         0.0587
     39 H4'         0.0402    1.7079    3.4342 H         1 ACP         0.0938
     40 H3'         1.5907    1.4859    1.1353 H         1 ACP         0.0597
     41 HO3'        2.6839   -0.1150    2.2479 H         1 ACP         0.4554
     42 H2'        -0.0017    0.0018    0.0005 H         1 ACP         0.0710
     43 HO2'        0.9369   -2.0558    0.0825 H         1 ACP         0.4360
     44 H1'        -0.1998   -1.6319    2.6178 H         1 ACP         0.1247
     45 H8         -1.5778   -3.5473    2.1399 H         1 ACP         0.0875
     46 HN61       -5.2294   -3.7965   -0.9914 H         1 ACP         0.4433
     47 HN62       -5.9774   -2.6837   -2.1055 H         1 ACP         0.4433
     48 H2         -3.6201    1.2414   -1.6336 H         1 ACP         0.0459
@<TRIPOS>BOND
     1    1    2 2
     2    1    3 1
     3    1    4 1
     4    1    8 1
     5    3   32 1
     6    4   33 1
     7    5    6 2
     8    5    7 1
     9    5    8 1
    10    5   12 1
    11    8   34 1
    12    8   35 1
    13    9   10 2
    14    9   11 1
    15    9   12 1
    16    9   13 1
    17   11   36 1
    18   13   14 1
    19   14   15 1
    20   14   37 1
    21   14   38 1
    22   15   16 1
    23   15   17 1
    24   15   39 1
    25   16   21 1
    26   17   18 1
    27   17   19 1
    28   17   40 1
    29   18   41 1
    30   19   20 1
    31   19   21 1
    32   19   42 1
    33   20   43 1
    34   21   22 1
    35   21   44 1
    36   22   23 ar
    37   22   31 ar
    38   23   24 ar
    39   23   45 1
    40   24   25 ar
    41   25   26 ar
    42   25   31 ar
    43   26   27 1
    44   26   28 ar
    45   27   46 1
    46   27   47 1
    47   28   29 ar
    48   29   30 ar
    49   29   48 1
    50   30   31 ar
@<TRIPOS>SUBSTRUCTURE
     1 ACP         1 GROUP 0 A     ****
@<TRIPOS>MOLECULE
[[5-(6-aminopurin-9-yl)-3,4-dihydroxy-tetrahydrofuran-2-yl]methoxy-hydroxy-phosphoryl]oxy-(phosphonomethyl)phosphinate
   48    50     1     0     0
SMALL
USER_CHARGES

@<TRIPOS>ATOM
      1 PG          6.7042    5.3576   -1.0868 P.3       1 ACP         1.6292
      2 O1G         6.8010    4.0634   -1.8371 O.2       1 ACP        -0.8674
      3 O2G         7.4735    6.6098   -1.7577 O.3       1 ACP        -0.7977
      4 O3G         5.2052    5.9128   -0.8529 O.3       1 ACP        -0.7977
      5 PB          6.7407    4.1500    1.8836 P.3       1 ACP         1.4910
      6 O1B         5.2816    4.4838    2.0918 O.co2     1 ACP        -0.8292
      7 O2B         7.7376    4.1518    3.0192 O.co2     1 ACP        -0.8292
      8 C3B         7.3856    5.2999    0.5862 C.3       1 ACP        -0.6453
      9 PA          6.3383    1.2707    1.3934 P.3       1 ACP         1.7996
     10 O1A         6.8983    0.6915    2.6601 O.2       1 ACP        -0.8588
     11 O2A         6.6824    0.4202    0.0609 O.3       1 ACP        -0.8037
     12 O3A         6.8669    2.7585    1.0432 O.3       1 ACP        -0.7988
     13 O5'         4.7297    1.4430    1.3689 O.3       1 ACP        -0.5960
     14 C5'         4.0922    1.9801    0.2227 C.3       1 ACP         0.1917
     15 C4'         2.5944    2.0310    0.4653 C.3       1 ACP         0.0908
     16 O4'         1.9327    2.5740   -0.6889 O.3       1 ACP        -0.4111
     17 C3'         1.9685    0.6634    0.6767 C.3       1 ACP         0.0927
     18 O3'         2.1425    0.1975    1.9977 O.3       1 ACP        -0.6127
     19 C2'         0.5176    0.9128    0.3099 C.3       1 ACP         0.1095
     20 O2'        -0.2103    1.4454    1.4152 O.3       1 ACP        -0.5953
     21 C1'         0.6219    1.9765   -0.7844 C.3       1 ACP         0.4273
     22 N9          0.4237    1.4496   -2.1357 N.pl3     1 ACP        -0.6934
     23 C8          1.4026    0.9717   -2.9660 C.ar      1 ACP         0.5422
     24 N7          0.9183    0.5619   -4.1197 N.2       1 ACP        -0.5596
     25 C5         -0.4330    0.7845   -4.0331 C.ar      1 ACP        -0.2259
     26 C6         -1.4794    0.5615   -4.9225 C.ar      1 ACP         0.7526
     27 N6         -1.2378    0.0044   -6.1899 N.pl3     1 ACP        -0.9660
     28 N1         -2.7406    0.8885   -4.5512 N.ar      1 ACP        -0.8027
     29 C2         -2.9113    1.4216   -3.3172 C.ar      1 ACP         0.6758
     30 N3         -1.9824    1.6843   -2.3721 N.ar      1 ACP        -0.7221
     31 C4         -0.7613    1.3370   -2.8054 C.ar      1 ACP         0.5858
     32 HOG2        7.4436    7.4818   -1.3094 H         1 ACP         0.4705
     33 HOG3        4.6444    6.1105   -1.6330 H         1 ACP         0.4705
     34 H3B1        8.4542    5.0766    0.4901 H         1 ACP         0.1189
     35 H3B2        7.3073    6.3076    1.0098 H         1 ACP         0.1189
     36 HOA2        6.3789   -0.5107    0.0009 H         1 ACP         0.4679
     37 H5'1        4.4838    2.9857    0.0374 H         1 ACP         0.0587
     38 H5'2        4.3186    1.3449   -0.6398 H         1 ACP         0.0587
     39 H4'         2.3752    2.7029    1.3156 H         1 ACP         0.0938
     40 H3'         2.4336   -0.1217   -0.0016 H         1 ACP         0.0597
     41 HO3'        3.0987    0.1465    2.1461 H         1 ACP         0.4554
     42 H2'         0.0316    0.0155   -0.0339 H         1 ACP         0.0710
     43 HO2'       -0.1608    0.7921    2.1351 H         1 ACP         0.4360
     44 H1'        -0.1474    2.7798   -0.6651 H         1 ACP         0.1247
     45 H8          2.4442    0.9470   -2.6763 H         1 ACP         0.0875
     46 HN61       -2.0105   -0.1920   -6.7974 H         1 ACP         0.4433
     47 HN62       -0.3075   -0.2773   -6.4350 H         1 ACP         0.4433
     48 H2         -3.9335    1.6716   -3.0534 H         1 ACP         0.0459
@<TRIPOS>BOND
     1    1    2 2
     2    1    3 1
     3    1    4 1
     4    1    8 1
     5    3   32 1
     6    4   33 1
     7    5    6 2
     8    5    7 1
     9    5    8 1
    10    5   12 1
    11    8   34 1
    12    8   35 1
    13    9   10 2
    14    9   11 1
    15    9   12 1
    16    9   13 1
    17   11   36 1
    18   13   14 1
    19   14   15 1
    20   14   37 1
    21   14   38 1
    22   15   16 1
    23   15   17 1
    24   15   39 1
    25   16   21 1
    26   17   18 1
    27   17   19 1
    28   17   40 1
    29   18   41 1
    30   19   20 1
    31   19   21 1
    32   19   42 1
    33   20   43 1
    34   21   22 1
    35   21   44 1
    36   22   23 ar
    37   22   31 ar
    38   23   24 ar
    39   23   45 1
    40   24   25 ar
    41   25   26 ar
    42   25   31 ar
    43   26   27 1
    44   26   28 ar
    45   27   46 1
    46   27   47 1
    47   28   29 ar
    48   29   30 ar
    49   29   48 1
    50   30   31 ar
@<TRIPOS>SUBSTRUCTURE
     1 ACP         1 GROUP 0 A     ****
@<TRIPOS>MOLECULE
[[5-(6-aminopurin-9-yl)-3,4-dihydroxy-tetrahydrofuran-2-yl]methoxy-hydroxy-phosphoryl]oxy-(phosphonomethyl)phosphinate
   48    50     1     0     0
SMALL
USER_CHARGES

@<TRIPOS>ATOM
      1 PG          5.9564    3.4542   -4.5369 P.3       1 ACP         1.6292
      2 O1G         6.4254    4.8529   -4.8037 O.2       1 ACP        -0.8674
      3 O2G         4.6652    3.3253   -3.5745 O.3       1 ACP        -0.7977
      4 O3G         5.5433    2.6003   -5.8446 O.3       1 ACP        -0.7977
      5 PB          7.9002    2.7991   -2.0721 P.3       1 ACP         1.4910
      6 O1B         8.5890    4.1387   -2.1936 O.co2     1 ACP        -0.8292
      7 O2B         8.6217    1.5631   -1.5872 O.co2     1 ACP        -0.8292
      8 C3B         7.1827    2.4002   -3.7296 C.3       1 ACP        -0.6453
      9 PA          6.2292    3.5136    0.2496 P.3       1 ACP         1.7996
     10 O1A         6.6927    4.9186    0.5045 O.2       1 ACP        -0.8588
     11 O2A         6.9320    2.3979    1.1869 O.3       1 ACP        -0.8037
     12 O3A         6.5026    2.9775   -1.2516 O.3       1 ACP        -0.7988
     13 O5'         4.6408    3.2691    0.4376 O.3       1 ACP        -0.5960
     14 C5'         4.0922    1.9801    0.2227 C.3       1 ACP         0.1917
     15 C4'         2.5944    2.0310    0.4653 C.3       1 ACP         0.0908
     16 O4'         1.9327    2.5740   -0.6889 O.3       1 ACP        -0.4111
     17 C3'         1.9685    0.6634    0.6767 C.3       1 ACP         0.0927
     18 O3'         2.1425    0.1975    1.9977 O.3       1 ACP        -0.6127
     19 C2'         0.5176    0.9128    0.3099 C.3       1 ACP         0.1095
     20 O2'        -0.2103    1.4454    1.4152 O.3       1 ACP        -0.5953
     21 C1'         0.6219    1.9765   -0.7844 C.3       1 ACP         0.4273
     22 N9          0.4237    1.4496   -2.1357 N.pl3     1 ACP        -0.6934
     23 C8          1.4026    0.9717   -2.9660 C.ar      1 ACP         0.5422
     24 N7          0.9183    0.5619   -4.1197 N.2       1 ACP        -0.5596
     25 C5         -0.4330    0.7845   -4.0331 C.ar      1 ACP        -0.2259
     26 C6         -1.4794    0.5615   -4.9225 C.ar      1 ACP         0.7526
     27 N6         -1.2378    0.0044   -6.1899 N.pl3     1 ACP        -0.9660
     28 N1         -2.7406    0.8885   -4.5512 N.ar      1 ACP        -0.8027
     29 C2         -2.9113    1.4216   -3.3172 C.ar      1 ACP         0.6758
     30 N3         -1.9824    1.6843   -2.3721 N.ar      1 ACP        -0.7221
     31 C4         -0.7613    1.3370   -2.8054 C.ar      1 ACP         0.5858
     32 HOG2        4.7163    3.6781   -2.6606 H         1 ACP         0.4705
     33 HOG3        4.8194    2.9303   -6.4186 H         1 ACP         0.4705
     34 H3B1        6.7360    1.4042   -3.6327 H         1 ACP         0.1189
     35 H3B2        8.0347    2.3024   -4.4120 H         1 ACP         0.1189
     36 HOA2        6.8297    2.4637    2.1603 H         1 ACP         0.4679
     37 H5'1        4.3024    1.6721   -0.8067 H         1 ACP         0.0587
     38 H5'2        4.5673    1.2730    0.9105 H         1 ACP         0.0587
     39 H4'         2.3752    2.7029    1.3156 H         1 ACP         0.0938
     40 H3'         2.4336   -0.1217   -0.0016 H         1 ACP         0.0597
     41 HO3'        1.7160   -0.6716    2.0397 H         1 ACP         0.4554
     42 H2'         0.0316    0.0155   -0.0339 H         1 ACP         0.0710
     43 HO2'       -0.1608    0.7921    2.1351 H         1 ACP         0.4360
     44 H1'        -0.1474    2.7798   -0.6651 H         1 ACP         0.1247
     45 H8          2.4442    0.9470   -2.6763 H         1 ACP         0.0875
     46 HN61       -0.2955   -0.1901   -6.4713 H         1 ACP         0.4433
     47 HN62       -1.9987   -0.1045   -6.8334 H         1 ACP         0.4433
     48 H2         -3.9335    1.6716   -3.0534 H         1 ACP         0.0459
@<TRIPOS>BOND
     1    1    2 2
     2    1    3 1
     3    1    4 1
     4    1    8 1
     5    3   32 1
     6    4   33 1
     7    5    6 2
     8    5    7 1
     9    5    8 1
    10    5   12 1
    11    8   34 1
    12    8   35 1
    13    9   10 2
    14    9   11 1
    15    9   12 1
    16    9   13 1
    17   11   36 1
    18   13   14 1
    19   14   15 1
    20   14   37 1
    21   14   38 1
    22   15   16 1
    23   15   17 1
    24   15   39 1
    25   16   21 1
    26   17   18 1
    27   17   19 1
    28   17   40 1
    29   18   41 1
    30   19   20 1
    31   19   21 1
    32   19   42 1
    33   20   43 1
    34   21   22 1
    35   21   44 1
    36   22   23 ar
    37   22   31 ar
    38   23   24 ar
    39   23   45 1
    40   24   25 ar
    41   25   26 ar
    42   25   31 ar
    43   26   27 1
    44   26   28 ar
    45   27   46 1
    46   27   47 1
    47   28   29 ar
    48   29   30 ar
    49   29   48 1
    50   30   31 ar
@<TRIPOS>SUBSTRUCTURE
     1 ACP         1 GROUP 0 A     ****
@<TRIPOS>MOLECULE
[[5-(6-aminopurin-9-yl)-3,4-dihydroxy-tetrahydrofuran-2-yl]methoxy-hydroxy-phosphoryl]oxy-(phosphonomethyl)phosphinate
   48    50     1     0     0
SMALL
USER_CHARGES

@<TRIPOS>ATOM
      1 PG         -2.9795    6.1986   -2.5326 P.3       1 ACP         1.6292
      2 O1G        -2.3125    6.4964   -3.8417 O.2       1 ACP        -0.8674
      3 O2G        -2.3418    6.9351   -1.2437 O.3       1 ACP        -0.7977
      4 O3G        -4.5475    6.5789   -2.4512 O.3       1 ACP        -0.7977
      5 PB         -3.7140    3.8319   -0.4974 P.3       1 ACP         1.4910
      6 O1B        -3.4983    2.3368   -0.4574 O.co2     1 ACP        -0.8292
      7 O2B        -5.0882    4.4509   -0.3882 O.co2     1 ACP        -0.8292
      8 C3B        -2.9564    4.4526   -2.0665 C.3       1 ACP        -0.6453
      9 PA         -2.5516    4.3890    2.1542 P.3       1 ACP         1.7996
     10 O1A        -3.7879    4.7308    2.9341 O.2       1 ACP        -0.8588
     11 O2A        -1.2616    5.2960    2.5158 O.3       1 ACP        -0.8037
     12 O3A        -2.6991    4.5573    0.5525 O.3       1 ACP        -0.7988
     13 O5'        -2.0397    2.8622    2.3121 O.3       1 ACP        -0.5960
     14 C5'        -0.8811    2.4285    1.6206 C.3       1 ACP         0.1917
     15 C4'        -0.1994    1.3333    2.4288 C.3       1 ACP         0.0908
     16 O4'        -1.1285    0.2356    2.5840 O.3       1 ACP        -0.4111
     17 C3'         1.0324    0.7610    1.7344 C.3       1 ACP         0.0927
     18 O3'         1.9175    0.2377    2.7247 O.3       1 ACP        -0.6127
     19 C2'         0.4468   -0.3802    0.9263 C.3       1 ACP         0.1095
     20 O2'         1.3993   -1.3703    0.5961 O.3       1 ACP        -0.5953
     21 C1'        -0.6159   -0.9100    1.8769 C.3       1 ACP         0.4273
     22 N9         -1.7127   -1.6108    1.2130 N.pl3     1 ACP        -0.6934
     23 C8         -1.6011   -2.7426    0.4497 C.ar      1 ACP         0.5422
     24 N7         -2.7657   -3.1449   -0.0147 N.2       1 ACP        -0.5596
     25 C5         -3.6708   -2.2337    0.4686 C.ar      1 ACP        -0.2259
     26 C6         -5.0501   -2.1167    0.3282 C.ar      1 ACP         0.7526
     27 N6         -5.7760   -3.0497   -0.4318 N.pl3     1 ACP        -0.9660
     28 N1         -5.6892   -1.0882    0.9359 N.ar      1 ACP        -0.8027
     29 C2         -4.9364   -0.2212    1.6553 C.ar      1 ACP         0.6758
     30 N3         -3.6016   -0.2290    1.8634 N.ar      1 ACP        -0.7221
     31 C4         -3.0352   -1.2703    1.2354 C.ar      1 ACP         0.5858
     32 HOG2       -2.7387    6.7765   -0.3608 H         1 ACP         0.4705
     33 HOG3       -4.8180    7.5119   -2.5870 H         1 ACP         0.4705
     34 H3B1       -3.4436    3.8977   -2.8763 H         1 ACP         0.1189
     35 H3B2       -1.9091    4.1304   -2.0444 H         1 ACP         0.1189
     36 HOA2       -0.9203    5.2897    3.4355 H         1 ACP         0.4679
     37 H5'1       -1.1760    2.0499    0.6365 H         1 ACP         0.0587
     38 H5'2       -0.2073    3.2811    1.4873 H         1 ACP         0.0587
     39 H4'         0.0402    1.7079    3.4342 H         1 ACP         0.0938
     40 H3'         1.5907    1.4859    1.1353 H         1 ACP         0.0597
     41 HO3'        2.6839   -0.1150    2.2479 H         1 ACP         0.4554
     42 H2'        -0.0017    0.0018    0.0005 H         1 ACP         0.0710
     43 HO2'        2.0953   -0.9375    0.0709 H         1 ACP         0.4360
     44 H1'        -0.1998   -1.6319    2.6178 H         1 ACP         0.1247
     45 H8         -0.6507   -3.2259    0.2692 H         1 ACP         0.0875
     46 HN61       -5.2868   -3.7791   -0.9150 H         1 ACP         0.4433
     47 HN62       -6.7619   -2.9208   -0.5594 H         1 ACP         0.4433
     48 H2         -5.4806    0.5898    2.1277 H         1 ACP         0.0459
@<TRIPOS>BOND
     1    1    2 2
     2    1    3 1
     3    1    4 1
     4    1    8 1
     5    3   32 1
     6    4   33 1
     7    5    6 2
     8    5    7 1
     9    5    8 1
    10    5   12 1
    11    8   34 1
    12    8   35 1
    13    9   10 2
    14    9   11 1
    15    9   12 1
    16    9   13 1
    17   11   36 1
    18   13   14 1
    19   14   15 1
    20   14   37 1
    21   14   38 1
    22   15   16 1
    23   15   17 1
    24   15   39 1
    25   16   21 1
    26   17   18 1
    27   17   19 1
    28   17   40 1
    29   18   41 1
    30   19   20 1
    31   19   21 1
    32   19   42 1
    33   20   43 1
    34   21   22 1
    35   21   44 1
    36   22   23 ar
    37   22   31 ar
    38   23   24 ar
    39   23   45 1
    40   24   25 ar
    41   25   26 ar
    42   25   31 ar
    43   26   27 1
    44   26   28 ar
    45   27   46 1
    46   27   47 1
    47   28   29 ar
    48   29   30 ar
    49   29   48 1
    50   30   31 ar
@<TRIPOS>SUBSTRUCTURE
     1 ACP         1 GROUP 0 A     ****
@<TRIPOS>MOLECULE
[[5-(6-aminopurin-9-yl)-3,4-dihydroxy-tetrahydrofuran-2-yl]methoxy-hydroxy-phosphoryl]oxy-(phosphonomethyl)phosphinate
   48    50     1     0     0
SMALL
USER_CHARGES

@<TRIPOS>ATOM
      1 PG         -5.6393    6.0579    1.3908 P.3       1 ACP         1.6292
      2 O1G        -5.0329    6.1964    0.0268 O.2       1 ACP        -0.8674
      3 O2G        -5.7764    7.4294    2.2336 O.3       1 ACP        -0.7977
      4 O3G        -7.1309    5.4384    1.4266 O.3       1 ACP        -0.7977
      5 PB         -2.9637    5.3042    2.9895 P.3       1 ACP         1.4910
      6 O1B        -2.5408    4.1942    3.9236 O.co2     1 ACP        -0.8292
      7 O2B        -2.8716    6.7620    3.3766 O.co2     1 ACP        -0.8292
      8 C3B        -4.7188    4.9750    2.5072 C.3       1 ACP        -0.6453
      9 PA         -0.7171    5.0024    1.1041 P.3       1 ACP         1.7996
     10 O1A         0.0755    6.2388    1.4152 O.2       1 ACP        -0.8588
     11 O2A        -0.7678    4.6191   -0.4668 O.3       1 ACP        -0.8037
     12 O3A        -2.2759    5.0787    1.5285 O.3       1 ACP        -0.7988
     13 O5'        -0.2069    3.6554    1.8412 O.3       1 ACP        -0.5960
     14 C5'        -0.8811    2.4285    1.6206 C.3       1 ACP         0.1917
     15 C4'        -0.1994    1.3333    2.4288 C.3       1 ACP         0.0908
     16 O4'        -1.1285    0.2356    2.5840 O.3       1 ACP        -0.4111
     17 C3'         1.0324    0.7610    1.7344 C.3       1 ACP         0.0927
     18 O3'         1.9175    0.2377    2.7247 O.3       1 ACP        -0.6127
     19 C2'         0.4468   -0.3802    0.9263 C.3       1 ACP         0.1095
     20 O2'         1.3993   -1.3703    0.5961 O.3       1 ACP        -0.5953
     21 C1'        -0.6159   -0.9100    1.8769 C.3       1 ACP         0.4273
     22 N9         -1.7127   -1.6108    1.2130 N.pl3     1 ACP        -0.6934
     23 C8         -1.7712   -2.9546    0.9544 C.ar      1 ACP         0.5422
     24 N7         -2.8883   -3.2948    0.3462 N.2       1 ACP        -0.5596
     25 C5         -3.5834   -2.1202    0.2043 C.ar      1 ACP        -0.2259
     26 C6         -4.8225   -1.8251   -0.3554 C.ar      1 ACP         0.7526
     27 N6         -5.6154   -2.8394   -0.9189 N.pl3     1 ACP        -0.9660
     28 N1         -5.2589   -0.5425   -0.3507 N.ar      1 ACP        -0.8027
     29 C2         -4.4510    0.3913    0.2069 C.ar      1 ACP         0.6758
     30 N3         -3.2368    0.2296    0.7767 N.ar      1 ACP        -0.7221
     31 C4         -2.8684   -1.0596    0.7376 C.ar      1 ACP         0.5858
     32 HOG2       -4.9662    7.9404    2.4450 H         1 ACP         0.4705
     33 HOG3       -7.8512    5.9056    0.9521 H         1 ACP         0.4705
     34 H3B1       -5.2844    4.9247    3.4445 H         1 ACP         0.1189
     35 H3B2       -4.7293    3.9682    2.0742 H         1 ACP         0.1189
     36 HOA2       -1.1527    5.2621   -1.0996 H         1 ACP         0.4679
     37 H5'1       -1.9259    2.5372    1.9293 H         1 ACP         0.0587
     38 H5'2       -0.8477    2.1923    0.5521 H         1 ACP         0.0587
     39 H4'         0.0402    1.7079    3.4342 H         1 ACP         0.0938
     40 H3'         1.5907    1.4859    1.1353 H         1 ACP         0.0597
     41 HO3'        2.1521    0.9800    3.3017 H         1 ACP         0.4554
     42 H2'        -0.0017    0.0018    0.0005 H         1 ACP         0.0710
     43 HO2'        0.9369   -2.0558    0.0825 H         1 ACP         0.4360
     44 H1'        -0.1998   -1.6319    2.6178 H         1 ACP         0.1247
     45 H8         -0.9745   -3.6312    1.2318 H         1 ACP         0.0875
     46 HN61       -5.2619   -3.7766   -0.9586 H         1 ACP         0.4433
     47 HN62       -6.4834   -2.5990   -1.3590 H         1 ACP         0.4433
     48 H2         -4.8317    1.4071    0.1930 H         1 ACP         0.0459
@<TRIPOS>BOND
     1    1    2 2
     2    1    3 1
     3    1    4 1
     4    1    8 1
     5    3   32 1
     6    4   33 1
     7    5    6 2
     8    5    7 1
     9    5    8 1
    10    5   12 1
    11    8   34 1
    12    8   35 1
    13    9   10 2
    14    9   11 1
    15    9   12 1
    16    9   13 1
    17   11   36 1
    18   13   14 1
    19   14   15 1
    20   14   37 1
    21   14   38 1
    22   15   16 1
    23   15   17 1
    24   15   39 1
    25   16   21 1
    26   17   18 1
    27   17   19 1
    28   17   40 1
    29   18   41 1
    30   19   20 1
    31   19   21 1
    32   19   42 1
    33   20   43 1
    34   21   22 1
    35   21   44 1
    36   22   23 ar
    37   22   31 ar
    38   23   24 ar
    39   23   45 1
    40   24   25 ar
    41   25   26 ar
    42   25   31 ar
    43   26   27 1
    44   26   28 ar
    45   27   46 1
    46   27   47 1
    47   28   29 ar
    48   29   30 ar
    49   29   48 1
    50   30   31 ar
@<TRIPOS>SUBSTRUCTURE
     1 ACP         1 GROUP 0 A     ****
@<TRIPOS>MOLECULE
[[5-(6-aminopurin-9-yl)-3,4-dihydroxy-tetrahydrofuran-2-yl]methoxy-hydroxy-phosphoryl]oxy-(phosphonomethyl)phosphinate
   48    50     1     0     0
SMALL
USER_CHARGES

@<TRIPOS>ATOM
      1 PG          1.1960    6.6547    0.2088 P.3       1 ACP         1.6292
      2 O1G         0.4233    7.7499    0.8803 O.2       1 ACP        -0.8674
      3 O2G         2.7507    6.9804   -0.0862 O.3       1 ACP        -0.7977
      4 O3G         1.2460    5.2514    1.0076 O.3       1 ACP        -0.7977
      5 PB         -1.1591    5.5315   -1.6552 P.3       1 ACP         1.4910
      6 O1B        -1.3263    5.2482   -3.1302 O.co2     1 ACP        -0.8292
      7 O2B        -2.0946    6.4463   -0.8994 O.co2     1 ACP        -0.8292
      8 C3B         0.5562    6.1804   -1.4135 C.3       1 ACP        -0.6453
      9 PA         -1.9903    2.8601   -0.7251 P.3       1 ACP         1.7996
     10 O1A        -2.3239    2.2013   -2.0321 O.2       1 ACP        -0.8588
     11 O2A        -3.2682    3.4570    0.0674 O.3       1 ACP        -0.8037
     12 O3A        -0.9912    4.1261   -0.8460 O.3       1 ACP        -0.7988
     13 O5'        -1.2435    1.9111    0.3519 O.3       1 ACP        -0.5960
     14 C5'        -0.8811    2.4285    1.6206 C.3       1 ACP         0.1917
     15 C4'        -0.1994    1.3333    2.4288 C.3       1 ACP         0.0908
     16 O4'        -1.1285    0.2356    2.5840 O.3       1 ACP        -0.4111
     17 C3'         1.0324    0.7610    1.7344 C.3       1 ACP         0.0927
     18 O3'         1.9175    0.2377    2.7247 O.3       1 ACP        -0.6127
     19 C2'         0.4468   -0.3802    0.9263 C.3       1 ACP         0.1095
     20 O2'         1.3993   -1.3703    0.5961 O.3       1 ACP        -0.5953
     21 C1'        -0.6159   -0.9100    1.8769 C.3       1 ACP         0.4273
     22 N9         -1.7127   -1.6108    1.2130 N.pl3     1 ACP        -0.6934
     23 C8         -2.8641   -1.0399    0.7392 C.ar      1 ACP         0.5422
     24 N7         -3.6659   -1.9257    0.1858 N.2       1 ACP        -0.5596
     25 C5         -3.0053   -3.1223    0.3069 C.ar      1 ACP        -0.2259
     26 C6         -3.3321   -4.4178   -0.0813 C.ar      1 ACP         0.7526
     27 N6         -4.5476   -4.6866   -0.7335 N.pl3     1 ACP        -0.9660
     28 N1         -2.4608   -5.4225    0.1773 N.ar      1 ACP        -0.8027
     29 C2         -1.3053   -5.1020    0.8081 C.ar      1 ACP         0.6758
     30 N3         -0.8788   -3.8921    1.2315 N.ar      1 ACP        -0.7221
     31 C4         -1.7870   -2.9477    0.9438 C.ar      1 ACP         0.5858
     32 HOG2        3.3442    7.1874    0.6668 H         1 ACP         0.4705
     33 HOG3        1.7377    4.4986    0.6156 H         1 ACP         0.4705
     34 H3B1        0.6394    7.0604   -2.0613 H         1 ACP         0.1189
     35 H3B2        1.2281    5.4179   -1.8237 H         1 ACP         0.1189
     36 HOA2       -3.9880    2.8465    0.3345 H         1 ACP         0.4679
     37 H5'1       -0.2031    3.2762    1.4777 H         1 ACP         0.0587
     38 H5'2       -1.7839    2.7764    2.1331 H         1 ACP         0.0587
     39 H4'         0.0402    1.7079    3.4342 H         1 ACP         0.0938
     40 H3'         1.5907    1.4859    1.1353 H         1 ACP         0.0597
     41 HO3'        2.6839   -0.1150    2.2479 H         1 ACP         0.4554
     42 H2'        -0.0017    0.0018    0.0005 H         1 ACP         0.0710
     43 HO2'        2.0953   -0.9375    0.0709 H         1 ACP         0.4360
     44 H1'        -0.1998   -1.6319    2.6178 H         1 ACP         0.1247
     45 H8         -3.0609    0.0200    0.8250 H         1 ACP         0.0875
     46 HN61       -5.2046   -3.9433   -0.8775 H         1 ACP         0.4433
     47 HN62       -4.7849   -5.6332   -0.9625 H         1 ACP         0.4433
     48 H2         -0.6318   -5.9307    0.9993 H         1 ACP         0.0459
@<TRIPOS>BOND
     1    1    2 2
     2    1    3 1
     3    1    4 1
     4    1    8 1
     5    3   32 1
     6    4   33 1
     7    5    6 2
     8    5    7 1
     9    5    8 1
    10    5   12 1
    11    8   34 1
    12    8   35 1
    13    9   10 2
    14    9   11 1
    15    9   12 1
    16    9   13 1
    17   11   36 1
    18   13   14 1
    19   14   15 1
    20   14   37 1
    21   14   38 1
    22   15   16 1
    23   15   17 1
    24   15   39 1
    25   16   21 1
    26   17   18 1
    27   17   19 1
    28   17   40 1
    29   18   41 1
    30   19   20 1
    31   19   21 1
    32   19   42 1
    33   20   43 1
    34   21   22 1
    35   21   44 1
    36   22   23 ar
    37   22   31 ar
    38   23   24 ar
    39   23   45 1
    40   24   25 ar
    41   25   26 ar
    42   25   31 ar
    43   26   27 1
    44   26   28 ar
    45   27   46 1
    46   27   47 1
    47   28   29 ar
    48   29   30 ar
    49   29   48 1
    50   30   31 ar
@<TRIPOS>SUBSTRUCTURE
     1 ACP         1 GROUP 0 A     ****
@<TRIPOS>MOLECULE
[[5-(6-aminopurin-9-yl)-3,4-dihydroxy-tetrahydrofuran-2-yl]methoxy-hydroxy-phosphoryl]oxy-(phosphonomethyl)phosphinate
   48    50     1     0     0
SMALL
USER_CHARGES

@<TRIPOS>ATOM
      1 PG         -2.0333   -2.8030   -5.6984 P.3       1 ACP         1.6292
      2 O1G        -0.9877   -2.0578   -6.4723 O.2       1 ACP        -0.8674
      3 O2G        -3.4429   -3.0143   -6.4590 O.3       1 ACP        -0.7977
      4 O3G        -1.6220   -4.2956   -5.2372 O.3       1 ACP        -0.7977
      5 PB         -3.2427   -0.3133   -4.0793 P.3       1 ACP         1.4910
      6 O1B        -3.5115    0.0013   -2.6259 O.co2     1 ACP        -0.8292
      7 O2B        -4.3256   -0.2490   -5.1312 O.co2     1 ACP        -0.8292
      8 C3B        -2.5139   -2.0120   -4.1460 C.3       1 ACP        -0.6453
      9 PA         -1.6646    2.1132   -4.6402 P.3       1 ACP         1.7996
     10 O1A        -2.6285    2.8802   -5.4982 O.2       1 ACP        -0.8588
     11 O2A        -0.1202    2.2215   -5.1097 O.3       1 ACP        -0.8037
     12 O3A        -1.9353    0.5196   -4.5844 O.3       1 ACP        -0.7988
     13 O5'        -1.6512    2.5329   -3.0776 O.3       1 ACP        -0.5960
     14 C5'        -0.7794    1.8744   -2.1748 C.3       1 ACP         0.1917
     15 C4'        -0.9699    2.4597   -0.7819 C.3       1 ACP         0.0908
     16 O4'        -2.1475    1.8640   -0.2014 O.3       1 ACP        -0.4111
     17 C3'         0.1697    2.1347    0.1695 C.3       1 ACP         0.0927
     18 O3'         0.1809    3.0982    1.2223 O.3       1 ACP        -0.6127
     19 C2'        -0.2543    0.7880    0.7187 C.3       1 ACP         0.1095
     20 O2'         0.3606    0.4944    1.9582 O.3       1 ACP        -0.5953
     21 C1'        -1.7682    0.9516    0.8548 C.3       1 ACP         0.4273
     22 N9         -2.5926   -0.2553    0.7436 N.pl3     1 ACP        -0.6934
     23 C8         -2.1324   -1.5302    0.5457 C.ar      1 ACP         0.5422
     24 N7         -3.1118   -2.4085    0.4915 N.2       1 ACP        -0.5596
     25 C5         -4.2561   -1.6704    0.6612 C.ar      1 ACP        -0.2259
     26 C6         -5.6018   -2.0215    0.6998 C.ar      1 ACP         0.7526
     27 N6         -5.9988   -3.3610    0.5479 N.pl3     1 ACP        -0.9660
     28 N1         -6.5303   -1.0528    0.8871 N.ar      1 ACP        -0.8027
     29 C2         -6.0872    0.2199    1.0276 C.ar      1 ACP         0.6758
     30 N3         -4.8179    0.6820    1.0081 N.ar      1 ACP        -0.7221
     31 C4         -3.9544   -0.3272    0.8198 C.ar      1 ACP         0.5858
     32 HOG2       -3.9529   -2.2259   -6.7426 H         1 ACP         0.4705
     33 HOG3       -1.3935   -4.9590   -5.9228 H         1 ACP         0.4705
     34 H3B1       -3.2428   -2.6717   -3.6618 H         1 ACP         0.1189
     35 H3B2       -1.6287   -1.9865   -3.5003 H         1 ACP         0.1189
     36 HOA2        0.1258    1.9096   -6.0065 H         1 ACP         0.4679
     37 H5'1       -1.0110    0.8043   -2.1746 H         1 ACP         0.0587
     38 H5'2        0.2528    2.0159   -2.5111 H         1 ACP         0.0587
     39 H4'        -1.1469    3.5409   -0.8523 H         1 ACP         0.0938
     40 H3'         1.1601    2.1310   -0.2934 H         1 ACP         0.0597
     41 HO3'        0.3098    3.9616    0.8017 H         1 ACP         0.4554
     42 H2'        -0.0024   -0.0091    0.0062 H         1 ACP         0.0710
     43 HO2'        1.3225    0.4909    1.8095 H         1 ACP         0.4360
     44 H1'        -2.0584    1.4255    1.8301 H         1 ACP         0.1247
     45 H8         -1.0791   -1.7555    0.4498 H         1 ACP         0.0875
     46 HN61       -5.3067   -4.0623    0.3633 H         1 ACP         0.4433
     47 HN62       -6.9754   -3.5867    0.5317 H         1 ACP         0.4433
     48 H2         -6.8575    0.9694    1.1755 H         1 ACP         0.0459
@<TRIPOS>BOND
     1    1    2 2
     2    1    3 1
     3    1    4 1
     4    1    8 1
     5    3   32 1
     6    4   33 1
     7    5    6 2
     8    5    7 1
     9    5    8 1
    10    5   12 1
    11    8   34 1
    12    8   35 1
    13    9   10 2
    14    9   11 1
    15    9   12 1
    16    9   13 1
    17   11   36 1
    18   13   14 1
    19   14   15 1
    20   14   37 1
    21   14   38 1
    22   15   16 1
    23   15   17 1
    24   15   39 1
    25   16   21 1
    26   17   18 1
    27   17   19 1
    28   17   40 1
    29   18   41 1
    30   19   20 1
    31   19   21 1
    32   19   42 1
    33   20   43 1
    34   21   22 1
    35   21   44 1
    36   22   23 ar
    37   22   31 ar
    38   23   24 ar
    39   23   45 1
    40   24   25 ar
    41   25   26 ar
    42   25   31 ar
    43   26   27 1
    44   26   28 ar
    45   27   46 1
    46   27   47 1
    47   28   29 ar
    48   29   30 ar
    49   29   48 1
    50   30   31 ar
@<TRIPOS>SUBSTRUCTURE
     1 ACP         1 GROUP 0 A     ****
@<TRIPOS>MOLECULE
[[5-(6-aminopurin-9-yl)-3,4-dihydroxy-tetrahydrofuran-2-yl]methoxy-hydroxy-phosphoryl]oxy-(phosphonomethyl)phosphinate
   48    50     1     0     0
SMALL
USER_CHARGES

@<TRIPOS>ATOM
      1 PG          0.0499    7.3858   -1.6082 P.3       1 ACP         1.6292
      2 O1G         0.4963    8.7046   -1.0526 O.2       1 ACP        -0.8674
      3 O2G        -1.5112    7.0316   -1.3897 O.3       1 ACP        -0.7977
      4 O3G         0.2647    7.1948   -3.1979 O.3       1 ACP        -0.7977
      5 PB          0.5298    4.2205   -1.4255 P.3       1 ACP         1.4910
      6 O1B         1.4326    3.3099   -0.6258 O.co2     1 ACP        -0.8292
      7 O2B         0.5016    4.2028   -2.9363 O.co2     1 ACP        -0.8292
      8 C3B         0.9023    5.9558   -0.9046 C.3       1 ACP        -0.6453
      9 PA         -1.9903    2.8601   -0.7251 P.3       1 ACP         1.7996
     10 O1A        -2.3239    2.2013   -2.0321 O.2       1 ACP        -0.8588
     11 O2A        -3.2682    3.4570    0.0674 O.3       1 ACP        -0.8037
     12 O3A        -0.9912    4.1261   -0.8460 O.3       1 ACP        -0.7988
     13 O5'        -1.2435    1.9111    0.3519 O.3       1 ACP        -0.5960
     14 C5'        -0.8811    2.4285    1.6206 C.3       1 ACP         0.1917
     15 C4'        -0.1994    1.3333    2.4288 C.3       1 ACP         0.0908
     16 O4'        -1.1285    0.2356    2.5840 O.3       1 ACP        -0.4111
     17 C3'         1.0324    0.7610    1.7344 C.3       1 ACP         0.0927
     18 O3'         1.9175    0.2377    2.7247 O.3       1 ACP        -0.6127
     19 C2'         0.4468   -0.3802    0.9263 C.3       1 ACP         0.1095
     20 O2'         1.3993   -1.3703    0.5961 O.3       1 ACP        -0.5953
     21 C1'        -0.6159   -0.9100    1.8769 C.3       1 ACP         0.4273
     22 N9         -1.7127   -1.6108    1.2130 N.pl3     1 ACP        -0.6934
     23 C8         -2.8641   -1.0399    0.7392 C.ar      1 ACP         0.5422
     24 N7         -3.6659   -1.9257    0.1858 N.2       1 ACP        -0.5596
     25 C5         -3.0053   -3.1223    0.3069 C.ar      1 ACP        -0.2259
     26 C6         -3.3321   -4.4178   -0.0813 C.ar      1 ACP         0.7526
     27 N6         -4.5476   -4.6866   -0.7335 N.pl3     1 ACP        -0.9660
     28 N1         -2.4608   -5.4225    0.1773 N.ar      1 ACP        -0.8027
     29 C2         -1.3053   -5.1020    0.8081 C.ar      1 ACP         0.6758
     30 N3         -0.8788   -3.8921    1.2315 N.ar      1 ACP        -0.7221
     31 C4         -1.7870   -2.9477    0.9438 C.ar      1 ACP         0.5858
     32 HOG2       -1.8582    6.1808   -1.7331 H         1 ACP         0.4705
     33 HOG3       -0.1797    7.8140   -3.8154 H         1 ACP         0.4705
     34 H3B1        1.9737    6.1006   -1.0835 H         1 ACP         0.1189
     35 H3B2        0.7537    5.9837    0.1809 H         1 ACP         0.1189
     36 HOA2       -3.9880    2.8465    0.3345 H         1 ACP         0.4679
     37 H5'1       -0.2031    3.2762    1.4777 H         1 ACP         0.0587
     38 H5'2       -1.7839    2.7764    2.1331 H         1 ACP         0.0587
     39 H4'         0.0402    1.7079    3.4342 H         1 ACP         0.0938
     40 H3'         1.5907    1.4859    1.1353 H         1 ACP         0.0597
     41 HO3'        2.6839   -0.1150    2.2479 H         1 ACP         0.4554
     42 H2'        -0.0017    0.0018    0.0005 H         1 ACP         0.0710
     43 HO2'        2.0953   -0.9375    0.0709 H         1 ACP         0.4360
     44 H1'        -0.1998   -1.6319    2.6178 H         1 ACP         0.1247
     45 H8         -3.0609    0.0200    0.8250 H         1 ACP         0.0875
     46 HN61       -5.2046   -3.9433   -0.8775 H         1 ACP         0.4433
     47 HN62       -4.7849   -5.6332   -0.9625 H         1 ACP         0.4433
     48 H2         -0.6318   -5.9307    0.9993 H         1 ACP         0.0459
@<TRIPOS>BOND
     1    1    2 2
     2    1    3 1
     3    1    4 1
     4    1    8 1
     5    3   32 1
     6    4   33 1
     7    5    6 2
     8    5    7 1
     9    5    8 1
    10    5   12 1
    11    8   34 1
    12    8   35 1
    13    9   10 2
    14    9   11 1
    15    9   12 1
    16    9   13 1
    17   11   36 1
    18   13   14 1
    19   14   15 1
    20   14   37 1
    21   14   38 1
    22   15   16 1
    23   15   17 1
    24   15   39 1
    25   16   21 1
    26   17   18 1
    27   17   19 1
    28   17   40 1
    29   18   41 1
    30   19   20 1
    31   19   21 1
    32   19   42 1
    33   20   43 1
    34   21   22 1
    35   21   44 1
    36   22   23 ar
    37   22   31 ar
    38   23   24 ar
    39   23   45 1
    40   24   25 ar
    41   25   26 ar
    42   25   31 ar
    43   26   27 1
    44   26   28 ar
    45   27   46 1
    46   27   47 1
    47   28   29 ar
    48   29   30 ar
    49   29   48 1
    50   30   31 ar
@<TRIPOS>SUBSTRUCTURE
     1 ACP         1 GROUP 0 A     ****
@<TRIPOS>MOLECULE
[[5-(6-aminopurin-9-yl)-3,4-dihydroxy-tetrahydrofuran-2-yl]methoxy-hydroxy-phosphoryl]oxy-(phosphonomethyl)phosphinate
   48    50     1     0     0
SMALL
USER_CHARGES

@<TRIPOS>ATOM
      1 PG          7.4840   -0.7087   -0.8776 P.3       1 ACP         1.6292
      2 O1G         7.2504   -0.4325    0.5772 O.2       1 ACP        -0.8674
      3 O2G         8.5497   -1.8790   -1.2010 O.3       1 ACP        -0.7977
      4 O3G         6.1753   -1.1422   -1.7198 O.3       1 ACP        -0.7977
      5 PB          7.2002    2.3002   -1.9496 P.3       1 ACP         1.4910
      6 O1B         5.8738    1.9950   -2.6061 O.co2     1 ACP        -0.8292
      7 O2B         8.1604    3.3233   -2.5106 O.co2     1 ACP        -0.8292
      8 C3B         8.1219    0.7026   -1.8092 C.3       1 ACP        -0.6453
      9 PA          6.0788    3.6958    0.3928 P.3       1 ACP         1.7996
     10 O1A         6.4678    5.1128    0.0855 O.2       1 ACP        -0.8588
     11 O2A         6.1996    3.2939    1.9553 O.3       1 ACP        -0.8037
     12 O3A         6.9706    2.5756   -0.3591 O.3       1 ACP        -0.7988
     13 O5'         4.5673    3.2930   -0.0211 O.3       1 ACP        -0.5960
     14 C5'         4.0922    1.9801    0.2227 C.3       1 ACP         0.1917
     15 C4'         2.5944    2.0310    0.4653 C.3       1 ACP         0.0908
     16 O4'         1.9327    2.5740   -0.6889 O.3       1 ACP        -0.4111
     17 C3'         1.9685    0.6634    0.6767 C.3       1 ACP         0.0927
     18 O3'         2.1425    0.1975    1.9977 O.3       1 ACP        -0.6127
     19 C2'         0.5176    0.9128    0.3099 C.3       1 ACP         0.1095
     20 O2'        -0.2103    1.4454    1.4152 O.3       1 ACP        -0.5953
     21 C1'         0.6219    1.9765   -0.7844 C.3       1 ACP         0.4273
     22 N9          0.4237    1.4496   -2.1357 N.pl3     1 ACP        -0.6934
     23 C8          1.4026    0.9717   -2.9660 C.ar      1 ACP         0.5422
     24 N7          0.9183    0.5619   -4.1197 N.2       1 ACP        -0.5596
     25 C5         -0.4330    0.7845   -4.0331 C.ar      1 ACP        -0.2259
     26 C6         -1.4794    0.5615   -4.9225 C.ar      1 ACP         0.7526
     27 N6         -1.2378    0.0044   -6.1899 N.pl3     1 ACP        -0.9660
     28 N1         -2.7406    0.8885   -4.5512 N.ar      1 ACP        -0.8027
     29 C2         -2.9113    1.4216   -3.3172 C.ar      1 ACP         0.6758
     30 N3         -1.9824    1.6843   -2.3721 N.ar      1 ACP        -0.7221
     31 C4         -0.7613    1.3370   -2.8054 C.ar      1 ACP         0.5858
     32 HOG2        8.3758   -2.7854   -0.8688 H         1 ACP         0.4705
     33 HOG3        6.2685   -1.3354   -2.6770 H         1 ACP         0.4705
     34 H3B1        9.0986    0.9549   -1.3810 H         1 ACP         0.1189
     35 H3B2        8.3016    0.3663   -2.8367 H         1 ACP         0.1189
     36 HOA2        5.6689    3.7896    2.6148 H         1 ACP         0.4679
     37 H5'1        4.3175    1.3541   -0.6468 H         1 ACP         0.0587
     38 H5'2        4.6079    1.5730    1.0985 H         1 ACP         0.0587
     39 H4'         2.3752    2.7029    1.3156 H         1 ACP         0.0938
     40 H3'         2.4336   -0.1217   -0.0016 H         1 ACP         0.0597
     41 HO3'        1.7160   -0.6716    2.0397 H         1 ACP         0.4554
     42 H2'         0.0316    0.0155   -0.0339 H         1 ACP         0.0710
     43 HO2'       -0.1608    0.7921    2.1351 H         1 ACP         0.4360
     44 H1'        -0.1474    2.7798   -0.6651 H         1 ACP         0.1247
     45 H8          2.4442    0.9470   -2.6763 H         1 ACP         0.0875
     46 HN61       -0.2955   -0.1901   -6.4713 H         1 ACP         0.4433
     47 HN62       -1.9987   -0.1045   -6.8334 H         1 ACP         0.4433
     48 H2         -3.9335    1.6716   -3.0534 H         1 ACP         0.0459
@<TRIPOS>BOND
     1    1    2 2
     2    1    3 1
     3    1    4 1
     4    1    8 1
     5    3   32 1
     6    4   33 1
     7    5    6 2
     8    5    7 1
     9    5    8 1
    10    5   12 1
    11    8   34 1
    12    8   35 1
    13    9   10 2
    14    9   11 1
    15    9   12 1
    16    9   13 1
    17   11   36 1
    18   13   14 1
    19   14   15 1
    20   14   37 1
    21   14   38 1
    22   15   16 1
    23   15   17 1
    24   15   39 1
    25   16   21 1
    26   17   18 1
    27   17   19 1
    28   17   40 1
    29   18   41 1
    30   19   20 1
    31   19   21 1
    32   19   42 1
    33   20   43 1
    34   21   22 1
    35   21   44 1
    36   22   23 ar
    37   22   31 ar
    38   23   24 ar
    39   23   45 1
    40   24   25 ar
    41   25   26 ar
    42   25   31 ar
    43   26   27 1
    44   26   28 ar
    45   27   46 1
    46   27   47 1
    47   28   29 ar
    48   29   30 ar
    49   29   48 1
    50   30   31 ar
@<TRIPOS>SUBSTRUCTURE
     1 ACP         1 GROUP 0 A     ****
@<TRIPOS>MOLECULE
[[5-(6-aminopurin-9-yl)-3,4-dihydroxy-tetrahydrofuran-2-yl]methoxy-hydroxy-phosphoryl]oxy-(phosphonomethyl)phosphinate
   48    50     1     0     0
SMALL
USER_CHARGES

@<TRIPOS>ATOM
      1 PG          1.2824    6.1741    0.5098 P.3       1 ACP         1.6292
      2 O1G         1.7844    5.3968    1.6893 O.2       1 ACP        -0.8674
      3 O2G         2.2465    7.3667    0.0014 O.3       1 ACP        -0.7977
      4 O3G         1.0113    5.3080   -0.8266 O.3       1 ACP        -0.7977
      5 PB         -1.8430    6.0887    1.2221 P.3       1 ACP         1.4910
      6 O1B        -2.1263    5.1276    0.0908 O.co2     1 ACP        -0.8292
      7 O2B        -2.8558    7.1105    1.6841 O.co2     1 ACP        -0.8292
      8 C3B        -0.2976    7.0069    0.7862 C.3       1 ACP        -0.6453
      9 PA         -1.9391    4.0774    3.3757 P.3       1 ACP         1.7996
     10 O1A        -3.2310    4.4475    4.0450 O.2       1 ACP        -0.8588
     11 O2A        -0.7613    3.6379    4.3940 O.3       1 ACP        -0.8037
     12 O3A        -1.2682    5.2646    2.5062 O.3       1 ACP        -0.7988
     13 O5'        -2.0397    2.8622    2.3121 O.3       1 ACP        -0.5960
     14 C5'        -0.8811    2.4285    1.6206 C.3       1 ACP         0.1917
     15 C4'        -0.1994    1.3333    2.4288 C.3       1 ACP         0.0908
     16 O4'        -1.1285    0.2356    2.5840 O.3       1 ACP        -0.4111
     17 C3'         1.0324    0.7610    1.7344 C.3       1 ACP         0.0927
     18 O3'         1.9175    0.2377    2.7247 O.3       1 ACP        -0.6127
     19 C2'         0.4468   -0.3802    0.9263 C.3       1 ACP         0.1095
     20 O2'         1.3993   -1.3703    0.5961 O.3       1 ACP        -0.5953
     21 C1'        -0.6159   -0.9100    1.8769 C.3       1 ACP         0.4273
     22 N9         -1.7127   -1.6108    1.2130 N.pl3     1 ACP        -0.6934
     23 C8         -1.7712   -2.9546    0.9544 C.ar      1 ACP         0.5422
     24 N7         -2.8883   -3.2948    0.3462 N.2       1 ACP        -0.5596
     25 C5         -3.5834   -2.1202    0.2043 C.ar      1 ACP        -0.2259
     26 C6         -4.8225   -1.8251   -0.3554 C.ar      1 ACP         0.7526
     27 N6         -5.6154   -2.8394   -0.9189 N.pl3     1 ACP        -0.9660
     28 N1         -5.2589   -0.5425   -0.3507 N.ar      1 ACP        -0.8027
     29 C2         -4.4510    0.3913    0.2069 C.ar      1 ACP         0.6758
     30 N3         -3.2368    0.2296    0.7767 N.ar      1 ACP        -0.7221
     31 C4         -2.8684   -1.0596    0.7376 C.ar      1 ACP         0.5858
     32 HOG2        1.9677    7.9084   -0.7673 H         1 ACP         0.4705
     33 HOG3        1.7562    4.8168   -1.2341 H         1 ACP         0.4705
     34 H3B1       -0.1412    7.7330    1.5919 H         1 ACP         0.1189
     35 H3B2       -0.5317    7.5799   -0.1183 H         1 ACP         0.1189
     36 HOA2       -0.4545    4.2797    5.0694 H         1 ACP         0.4679
     37 H5'1       -1.1760    2.0499    0.6365 H         1 ACP         0.0587
     38 H5'2       -0.2073    3.2811    1.4873 H         1 ACP         0.0587
     39 H4'         0.0402    1.7079    3.4342 H         1 ACP         0.0938
     40 H3'         1.5907    1.4859    1.1353 H         1 ACP         0.0597
     41 HO3'        2.6839   -0.1150    2.2479 H         1 ACP         0.4554
     42 H2'        -0.0017    0.0018    0.0005 H         1 ACP         0.0710
     43 HO2'        2.0953   -0.9375    0.0709 H         1 ACP         0.4360
     44 H1'        -0.1998   -1.6319    2.6178 H         1 ACP         0.1247
     45 H8         -0.9745   -3.6312    1.2318 H         1 ACP         0.0875
     46 HN61       -5.2619   -3.7766   -0.9586 H         1 ACP         0.4433
     47 HN62       -6.4834   -2.5990   -1.3590 H         1 ACP         0.4433
     48 H2         -4.8317    1.4071    0.1930 H         1 ACP         0.0459
@<TRIPOS>BOND
     1    1    2 2
     2    1    3 1
     3    1    4 1
     4    1    8 1
     5    3   32 1
     6    4   33 1
     7    5    6 2
     8    5    7 1
     9    5    8 1
    10    5   12 1
    11    8   34 1
    12    8   35 1
    13    9   10 2
    14    9   11 1
    15    9   12 1
    16    9   13 1
    17   11   36 1
    18   13   14 1
    19   14   15 1
    20   14   37 1
    21   14   38 1
    22   15   16 1
    23   15   17 1
    24   15   39 1
    25   16   21 1
    26   17   18 1
    27   17   19 1
    28   17   40 1
    29   18   41 1
    30   19   20 1
    31   19   21 1
    32   19   42 1
    33   20   43 1
    34   21   22 1
    35   21   44 1
    36   22   23 ar
    37   22   31 ar
    38   23   24 ar
    39   23   45 1
    40   24   25 ar
    41   25   26 ar
    42   25   31 ar
    43   26   27 1
    44   26   28 ar
    45   27   46 1
    46   27   47 1
    47   28   29 ar
    48   29   30 ar
    49   29   48 1
    50   30   31 ar
@<TRIPOS>SUBSTRUCTURE
     1 ACP         1 GROUP 0 A     ****
@<TRIPOS>MOLECULE
[[5-(6-aminopurin-9-yl)-3,4-dihydroxy-tetrahydrofuran-2-yl]methoxy-hydroxy-phosphoryl]oxy-(phosphonomethyl)phosphinate
   48    50     1     0     0
SMALL
USER_CHARGES

@<TRIPOS>ATOM
      1 PG         -3.9273    6.5196    4.7589 P.3       1 ACP         1.6292
      2 O1G        -4.2707    6.8487    3.3372 O.2       1 ACP        -0.8674
      3 O2G        -3.2395    7.7135    5.6025 O.3       1 ACP        -0.7977
      4 O3G        -5.1708    6.0664    5.6853 O.3       1 ACP        -0.7977
      5 PB         -1.0551    5.1975    4.2251 P.3       1 ACP         1.4910
      6 O1B        -0.3840    3.8922    4.5849 O.co2     1 ACP        -0.8292
      7 O2B        -0.4535    6.5375    4.5801 O.co2     1 ACP        -0.8292
      8 C3B        -2.7586    5.1535    4.9444 C.3       1 ACP        -0.6453
      9 PA         -0.5525    5.0215    1.3253 P.3       1 ACP         1.7996
     10 O1A         0.4935    6.0854    1.1588 O.2       1 ACP        -0.8588
     11 O2A        -1.6302    4.9500    0.1208 O.3       1 ACP        -0.8037
     12 O3A        -1.4691    5.1810    2.6482 O.3       1 ACP        -0.7988
     13 O5'         0.0170    3.5129    1.4593 O.3       1 ACP        -0.5960
     14 C5'        -0.8811    2.4285    1.6206 C.3       1 ACP         0.1917
     15 C4'        -0.1994    1.3333    2.4288 C.3       1 ACP         0.0908
     16 O4'        -1.1285    0.2356    2.5840 O.3       1 ACP        -0.4111
     17 C3'         1.0324    0.7610    1.7344 C.3       1 ACP         0.0927
     18 O3'         1.9175    0.2377    2.7247 O.3       1 ACP        -0.6127
     19 C2'         0.4468   -0.3802    0.9263 C.3       1 ACP         0.1095
     20 O2'         1.3993   -1.3703    0.5961 O.3       1 ACP        -0.5953
     21 C1'        -0.6159   -0.9100    1.8769 C.3       1 ACP         0.4273
     22 N9         -1.7127   -1.6108    1.2130 N.pl3     1 ACP        -0.6934
     23 C8         -1.7712   -2.9546    0.9544 C.ar      1 ACP         0.5422
     24 N7         -2.8883   -3.2948    0.3462 N.2       1 ACP        -0.5596
     25 C5         -3.5834   -2.1202    0.2043 C.ar      1 ACP        -0.2259
     26 C6         -4.8225   -1.8251   -0.3554 C.ar      1 ACP         0.7526
     27 N6         -5.6154   -2.8394   -0.9189 N.pl3     1 ACP        -0.9660
     28 N1         -5.2589   -0.5425   -0.3507 N.ar      1 ACP        -0.8027
     29 C2         -4.4510    0.3913    0.2069 C.ar      1 ACP         0.6758
     30 N3         -3.2368    0.2296    0.7767 N.ar      1 ACP        -0.7221
     31 C4         -2.8684   -1.0596    0.7376 C.ar      1 ACP         0.5858
     32 HOG2       -2.3875    8.0863    5.2906 H         1 ACP         0.4705
     33 HOG3       -5.9177    6.6887    5.8161 H         1 ACP         0.4705
     34 H3B1       -2.6274    4.9870    6.0196 H         1 ACP         0.1189
     35 H3B2       -3.2349    4.2539    4.5383 H         1 ACP         0.1189
     36 HOA2       -1.3125    4.7707   -0.7897 H         1 ACP         0.4679
     37 H5'1       -1.7775    2.7842    2.1389 H         1 ACP         0.0587
     38 H5'2       -1.1659    2.0534    0.6322 H         1 ACP         0.0587
     39 H4'         0.0402    1.7079    3.4342 H         1 ACP         0.0938
     40 H3'         1.5907    1.4859    1.1353 H         1 ACP         0.0597
     41 HO3'        2.6839   -0.1150    2.2479 H         1 ACP         0.4554
     42 H2'        -0.0017    0.0018    0.0005 H         1 ACP         0.0710
     43 HO2'        2.0953   -0.9375    0.0709 H         1 ACP         0.4360
     44 H1'        -0.1998   -1.6319    2.6178 H         1 ACP         0.1247
     45 H8         -0.9745   -3.6312    1.2318 H         1 ACP         0.0875
     46 HN61       -5.2619   -3.7766   -0.9586 H         1 ACP         0.4433
     47 HN62       -6.4834   -2.5990   -1.3590 H         1 ACP         0.4433
     48 H2         -4.8317    1.4071    0.1930 H         1 ACP         0.0459
@<TRIPOS>BOND
     1    1    2 2
     2    1    3 1
     3    1    4 1
     4    1    8 1
     5    3   32 1
     6    4   33 1
     7    5    6 2
     8    5    7 1
     9    5    8 1
    10    5   12 1
    11    8   34 1
    12    8   35 1
    13    9   10 2
    14    9   11 1
    15    9   12 1
    16    9   13 1
    17   11   36 1
    18   13   14 1
    19   14   15 1
    20   14   37 1
    21   14   38 1
    22   15   16 1
    23   15   17 1
    24   15   39 1
    25   16   21 1
    26   17   18 1
    27   17   19 1
    28   17   40 1
    29   18   41 1
    30   19   20 1
    31   19   21 1
    32   19   42 1
    33   20   43 1
    34   21   22 1
    35   21   44 1
    36   22   23 ar
    37   22   31 ar
    38   23   24 ar
    39   23   45 1
    40   24   25 ar
    41   25   26 ar
    42   25   31 ar
    43   26   27 1
    44   26   28 ar
    45   27   46 1
    46   27   47 1
    47   28   29 ar
    48   29   30 ar
    49   29   48 1
    50   30   31 ar
@<TRIPOS>SUBSTRUCTURE
     1 ACP         1 GROUP 0 A     ****
@<TRIPOS>MOLECULE
[[5-(6-aminopurin-9-yl)-3,4-dihydroxy-tetrahydrofuran-2-yl]methoxy-hydroxy-phosphoryl]oxy-(phosphonomethyl)phosphinate
   48    50     1     0     0
SMALL
USER_CHARGES

@<TRIPOS>ATOM
      1 PG         -3.1041    4.4055    6.0310 P.3       1 ACP         1.6292
      2 O1G        -1.9089    3.5663    5.6924 O.2       1 ACP        -0.8674
      3 O2G        -4.1421    3.7468    7.0791 O.3       1 ACP        -0.7977
      4 O3G        -2.7766    5.8499    6.6763 O.3       1 ACP        -0.7977
      5 PB         -3.5193    5.7632    3.1557 P.3       1 ACP         1.4910
      6 O1B        -3.0438    7.1045    3.6641 O.co2     1 ACP        -0.8292
      7 O2B        -4.5524    5.6369    2.0602 O.co2     1 ACP        -0.8292
      8 C3B        -4.1490    4.8167    4.6148 C.3       1 ACP        -0.6453
      9 PA         -1.0211    5.0514    1.7610 P.3       1 ACP         1.7996
     10 O1A        -0.2009    6.2833    2.0125 O.2       1 ACP        -0.8588
     11 O2A        -1.7535    5.0194    0.3188 O.3       1 ACP        -0.8037
     12 O3A        -2.2321    4.8245    2.8087 O.3       1 ACP        -0.7988
     13 O5'        -0.2069    3.6554    1.8412 O.3       1 ACP        -0.5960
     14 C5'        -0.8811    2.4285    1.6206 C.3       1 ACP         0.1917
     15 C4'        -0.1994    1.3333    2.4288 C.3       1 ACP         0.0908
     16 O4'        -1.1285    0.2356    2.5840 O.3       1 ACP        -0.4111
     17 C3'         1.0324    0.7610    1.7344 C.3       1 ACP         0.0927
     18 O3'         1.9175    0.2377    2.7247 O.3       1 ACP        -0.6127
     19 C2'         0.4468   -0.3802    0.9263 C.3       1 ACP         0.1095
     20 O2'         1.3993   -1.3703    0.5961 O.3       1 ACP        -0.5953
     21 C1'        -0.6159   -0.9100    1.8769 C.3       1 ACP         0.4273
     22 N9         -1.7127   -1.6108    1.2130 N.pl3     1 ACP        -0.6934
     23 C8         -2.5476   -1.0844    0.2632 C.ar      1 ACP         0.5422
     24 N7         -3.4391   -1.9591   -0.1536 N.2       1 ACP        -0.5596
     25 C5         -3.1701   -3.1016    0.5574 C.ar      1 ACP        -0.2259
     26 C6         -3.7593   -4.3620    0.5656 C.ar      1 ACP         0.7526
     27 N6         -4.8512   -4.6493   -0.2712 N.pl3     1 ACP        -0.9660
     28 N1         -3.2659   -5.3144    1.3932 N.ar      1 ACP        -0.8027
     29 C2         -2.2122   -4.9785    2.1759 C.ar      1 ACP         0.6758
     30 N3         -1.5595   -3.7985    2.2572 N.ar      1 ACP        -0.7221
     31 C4         -2.0986   -2.9054    1.4140 C.ar      1 ACP         0.5858
     32 HOG2       -4.9425    4.2520    7.3367 H         1 ACP         0.4705
     33 HOG3       -2.2781    5.8915    7.5201 H         1 ACP         0.4705
     34 H3B1       -4.5364    3.8721    4.2167 H         1 ACP         0.1189
     35 H3B2       -5.0098    5.3806    4.9920 H         1 ACP         0.1189
     36 HOA2       -2.3932    5.7288    0.0960 H         1 ACP         0.4679
     37 H5'1       -1.9259    2.5372    1.9293 H         1 ACP         0.0587
     38 H5'2       -0.8477    2.1923    0.5521 H         1 ACP         0.0587
     39 H4'         0.0402    1.7079    3.4342 H         1 ACP         0.0938
     40 H3'         1.5907    1.4859    1.1353 H         1 ACP         0.0597
     41 HO3'        2.1521    0.9800    3.3017 H         1 ACP         0.4554
     42 H2'        -0.0017    0.0018    0.0005 H         1 ACP         0.0710
     43 HO2'        2.0953   -0.9375    0.0709 H         1 ACP         0.4360
     44 H1'        -0.1998   -1.6319    2.6178 H         1 ACP         0.1247
     45 H8         -2.4576   -0.0639   -0.0831 H         1 ACP         0.0875
     46 HN61       -5.2371   -3.9234   -0.8448 H         1 ACP         0.4433
     47 HN62       -5.2909   -5.5485   -0.2160 H         1 ACP         0.4433
     48 H2         -1.8433   -5.7650    2.8259 H         1 ACP         0.0459
@<TRIPOS>BOND
     1    1    2 2
     2    1    3 1
     3    1    4 1
     4    1    8 1
     5    3   32 1
     6    4   33 1
     7    5    6 2
     8    5    7 1
     9    5    8 1
    10    5   12 1
    11    8   34 1
    12    8   35 1
    13    9   10 2
    14    9   11 1
    15    9   12 1
    16    9   13 1
    17   11   36 1
    18   13   14 1
    19   14   15 1
    20   14   37 1
    21   14   38 1
    22   15   16 1
    23   15   17 1
    24   15   39 1
    25   16   21 1
    26   17   18 1
    27   17   19 1
    28   17   40 1
    29   18   41 1
    30   19   20 1
    31   19   21 1
    32   19   42 1
    33   20   43 1
    34   21   22 1
    35   21   44 1
    36   22   23 ar
    37   22   31 ar
    38   23   24 ar
    39   23   45 1
    40   24   25 ar
    41   25   26 ar
    42   25   31 ar
    43   26   27 1
    44   26   28 ar
    45   27   46 1
    46   27   47 1
    47   28   29 ar
    48   29   30 ar
    49   29   48 1
    50   30   31 ar
@<TRIPOS>SUBSTRUCTURE
     1 ACP         1 GROUP 0 A     ****
@<TRIPOS>MOLECULE
[[5-(6-aminopurin-9-yl)-3,4-dihydroxy-tetrahydrofuran-2-yl]methoxy-hydroxy-phosphoryl]oxy-(phosphonomethyl)phosphinate
   48    50     1     0     0
SMALL
USER_CHARGES

@<TRIPOS>ATOM
      1 PG          6.8540   -2.1268    2.1739 P.3       1 ACP         1.6292
      2 O1G         5.4165   -1.8180    1.8815 O.2       1 ACP        -0.8674
      3 O2G         7.1772   -2.5560    3.6975 O.3       1 ACP        -0.7977
      4 O3G         7.4988   -3.3208    1.2972 O.3       1 ACP        -0.7977
      5 PB          8.1785    0.0463    0.2230 P.3       1 ACP         1.4910
      6 O1B         8.6503   -1.0248   -0.7329 O.co2     1 ACP        -0.8292
      7 O2B         8.9406    1.3348    0.4291 O.co2     1 ACP        -0.8292
      8 C3B         7.9850   -0.7475    1.8824 C.3       1 ACP        -0.6453
      9 PA          5.8746    0.9206   -1.3958 P.3       1 ACP         1.7996
     10 O1A         6.0243    0.0318   -2.5963 O.2       1 ACP        -0.8588
     11 O2A         6.4832    2.4075   -1.5854 O.3       1 ACP        -0.8037
     12 O3A         6.6072    0.3762   -0.0606 O.3       1 ACP        -0.7988
     13 O5'         4.3521    1.1579   -0.9020 O.3       1 ACP        -0.5960
     14 C5'         4.0922    1.9801    0.2227 C.3       1 ACP         0.1917
     15 C4'         2.5944    2.0310    0.4653 C.3       1 ACP         0.0908
     16 O4'         1.9327    2.5740   -0.6889 O.3       1 ACP        -0.4111
     17 C3'         1.9685    0.6634    0.6767 C.3       1 ACP         0.0927
     18 O3'         2.1425    0.1975    1.9977 O.3       1 ACP        -0.6127
     19 C2'         0.5176    0.9128    0.3099 C.3       1 ACP         0.1095
     20 O2'        -0.2103    1.4454    1.4152 O.3       1 ACP        -0.5953
     21 C1'         0.6219    1.9765   -0.7844 C.3       1 ACP         0.4273
     22 N9          0.4237    1.4496   -2.1357 N.pl3     1 ACP        -0.6934
     23 C8          1.4026    0.9717   -2.9660 C.ar      1 ACP         0.5422
     24 N7          0.9183    0.5619   -4.1197 N.2       1 ACP        -0.5596
     25 C5         -0.4330    0.7845   -4.0331 C.ar      1 ACP        -0.2259
     26 C6         -1.4794    0.5615   -4.9225 C.ar      1 ACP         0.7526
     27 N6         -1.2378    0.0044   -6.1899 N.pl3     1 ACP        -0.9660
     28 N1         -2.7406    0.8885   -4.5512 N.ar      1 ACP        -0.8027
     29 C2         -2.9113    1.4216   -3.3172 C.ar      1 ACP         0.6758
     30 N3         -1.9824    1.6843   -2.3721 N.ar      1 ACP        -0.7221
     31 C4         -0.7613    1.3370   -2.8054 C.ar      1 ACP         0.5858
     32 HOG2        8.1020   -2.7694    3.9453 H         1 ACP         0.4705
     33 HOG3        7.1037   -4.2171    1.3514 H         1 ACP         0.4705
     34 H3B1        7.6949    0.0561    2.5688 H         1 ACP         0.1189
     35 H3B2        8.9880   -1.0741    2.1798 H         1 ACP         0.1189
     36 HOA2        7.4386    2.5070   -1.7841 H         1 ACP         0.4679
     37 H5'1        4.6066    1.5623    1.0942 H         1 ACP         0.0587
     38 H5'2        4.4821    2.9842    0.0261 H         1 ACP         0.0587
     39 H4'         2.3752    2.7029    1.3156 H         1 ACP         0.0938
     40 H3'         2.4336   -0.1217   -0.0016 H         1 ACP         0.0597
     41 HO3'        3.0987    0.1465    2.1461 H         1 ACP         0.4554
     42 H2'         0.0316    0.0155   -0.0339 H         1 ACP         0.0710
     43 HO2'       -0.1608    0.7921    2.1351 H         1 ACP         0.4360
     44 H1'        -0.1474    2.7798   -0.6651 H         1 ACP         0.1247
     45 H8          2.4442    0.9470   -2.6763 H         1 ACP         0.0875
     46 HN61       -0.2955   -0.1901   -6.4713 H         1 ACP         0.4433
     47 HN62       -1.9987   -0.1045   -6.8334 H         1 ACP         0.4433
     48 H2         -3.9335    1.6716   -3.0534 H         1 ACP         0.0459
@<TRIPOS>BOND
     1    1    2 2
     2    1    3 1
     3    1    4 1
     4    1    8 1
     5    3   32 1
     6    4   33 1
     7    5    6 2
     8    5    7 1
     9    5    8 1
    10    5   12 1
    11    8   34 1
    12    8   35 1
    13    9   10 2
    14    9   11 1
    15    9   12 1
    16    9   13 1
    17   11   36 1
    18   13   14 1
    19   14   15 1
    20   14   37 1
    21   14   38 1
    22   15   16 1
    23   15   17 1
    24   15   39 1
    25   16   21 1
    26   17   18 1
    27   17   19 1
    28   17   40 1
    29   18   41 1
    30   19   20 1
    31   19   21 1
    32   19   42 1
    33   20   43 1
    34   21   22 1
    35   21   44 1
    36   22   23 ar
    37   22   31 ar
    38   23   24 ar
    39   23   45 1
    40   24   25 ar
    41   25   26 ar
    42   25   31 ar
    43   26   27 1
    44   26   28 ar
    45   27   46 1
    46   27   47 1
    47   28   29 ar
    48   29   30 ar
    49   29   48 1
    50   30   31 ar
@<TRIPOS>SUBSTRUCTURE
     1 ACP         1 GROUP 0 A     ****
@<TRIPOS>MOLECULE
[[5-(6-aminopurin-9-yl)-3,4-dihydroxy-tetrahydrofuran-2-yl]methoxy-hydroxy-phosphoryl]oxy-(phosphonomethyl)phosphinate
   48    50     1     0     0
SMALL
USER_CHARGES

@<TRIPOS>ATOM
      1 PG          9.2459   -0.4198    2.1059 P.3       1 ACP         1.6292
      2 O1G         9.9559   -1.6458    1.6159 O.2       1 ACP        -0.8674
      3 O2G         9.6737    0.0900    3.5780 O.3       1 ACP        -0.7977
      4 O3G         9.4161    0.8952    1.1832 O.3       1 ACP        -0.7977
      5 PB          6.3864   -1.0048    0.7776 P.3       1 ACP         1.4910
      6 O1B         4.9601   -1.0730    1.2722 O.co2     1 ACP        -0.8292
      7 O2B         7.0421   -2.1542    0.0480 O.co2     1 ACP        -0.8292
      8 C3B         7.4522   -0.6009    2.2345 C.3       1 ACP        -0.6453
      9 PA          5.8746    0.9206   -1.3958 P.3       1 ACP         1.7996
     10 O1A         6.0243    0.0318   -2.5963 O.2       1 ACP        -0.8588
     11 O2A         6.4832    2.4075   -1.5854 O.3       1 ACP        -0.8037
     12 O3A         6.6072    0.3762   -0.0606 O.3       1 ACP        -0.7988
     13 O5'         4.3521    1.1579   -0.9020 O.3       1 ACP        -0.5960
     14 C5'         4.0922    1.9801    0.2227 C.3       1 ACP         0.1917
     15 C4'         2.5944    2.0310    0.4653 C.3       1 ACP         0.0908
     16 O4'         1.9327    2.5740   -0.6889 O.3       1 ACP        -0.4111
     17 C3'         1.9685    0.6634    0.6767 C.3       1 ACP         0.0927
     18 O3'         2.1425    0.1975    1.9977 O.3       1 ACP        -0.6127
     19 C2'         0.5176    0.9128    0.3099 C.3       1 ACP         0.1095
     20 O2'        -0.2103    1.4454    1.4152 O.3       1 ACP        -0.5953
     21 C1'         0.6219    1.9765   -0.7844 C.3       1 ACP         0.4273
     22 N9          0.4237    1.4496   -2.1357 N.pl3     1 ACP        -0.6934
     23 C8          1.4026    0.9717   -2.9660 C.ar      1 ACP         0.5422
     24 N7          0.9183    0.5619   -4.1197 N.2       1 ACP        -0.5596
     25 C5         -0.4330    0.7845   -4.0331 C.ar      1 ACP        -0.2259
     26 C6         -1.4794    0.5615   -4.9225 C.ar      1 ACP         0.7526
     27 N6         -1.2378    0.0044   -6.1899 N.pl3     1 ACP        -0.9660
     28 N1         -2.7406    0.8885   -4.5512 N.ar      1 ACP        -0.8027
     29 C2         -2.9113    1.4216   -3.3172 C.ar      1 ACP         0.6758
     30 N3         -1.9824    1.6843   -2.3721 N.ar      1 ACP        -0.7221
     31 C4         -0.7613    1.3370   -2.8054 C.ar      1 ACP         0.5858
     32 HOG2       10.6075    0.3425    3.7409 H         1 ACP         0.4705
     33 HOG3        8.9733    1.7273    1.4551 H         1 ACP         0.4705
     34 H3B1        7.2611   -1.3863    2.9745 H         1 ACP         0.1189
     35 H3B2        7.0549    0.3321    2.6500 H         1 ACP         0.1189
     36 HOA2        6.1250    2.9792   -2.2976 H         1 ACP         0.4679
     37 H5'1        4.6066    1.5623    1.0942 H         1 ACP         0.0587
     38 H5'2        4.4821    2.9842    0.0261 H         1 ACP         0.0587
     39 H4'         2.3752    2.7029    1.3156 H         1 ACP         0.0938
     40 H3'         2.4336   -0.1217   -0.0016 H         1 ACP         0.0597
     41 HO3'        1.7160   -0.6716    2.0397 H         1 ACP         0.4554
     42 H2'         0.0316    0.0155   -0.0339 H         1 ACP         0.0710
     43 HO2'       -0.1608    0.7921    2.1351 H         1 ACP         0.4360
     44 H1'        -0.1474    2.7798   -0.6651 H         1 ACP         0.1247
     45 H8          2.4442    0.9470   -2.6763 H         1 ACP         0.0875
     46 HN61       -0.2955   -0.1901   -6.4713 H         1 ACP         0.4433
     47 HN62       -1.9987   -0.1045   -6.8334 H         1 ACP         0.4433
     48 H2         -3.9335    1.6716   -3.0534 H         1 ACP         0.0459
@<TRIPOS>BOND
     1    1    2 2
     2    1    3 1
     3    1    4 1
     4    1    8 1
     5    3   32 1
     6    4   33 1
     7    5    6 2
     8    5    7 1
     9    5    8 1
    10    5   12 1
    11    8   34 1
    12    8   35 1
    13    9   10 2
    14    9   11 1
    15    9   12 1
    16    9   13 1
    17   11   36 1
    18   13   14 1
    19   14   15 1
    20   14   37 1
    21   14   38 1
    22   15   16 1
    23   15   17 1
    24   15   39 1
    25   16   21 1
    26   17   18 1
    27   17   19 1
    28   17   40 1
    29   18   41 1
    30   19   20 1
    31   19   21 1
    32   19   42 1
    33   20   43 1
    34   21   22 1
    35   21   44 1
    36   22   23 ar
    37   22   31 ar
    38   23   24 ar
    39   23   45 1
    40   24   25 ar
    41   25   26 ar
    42   25   31 ar
    43   26   27 1
    44   26   28 ar
    45   27   46 1
    46   27   47 1
    47   28   29 ar
    48   29   30 ar
    49   29   48 1
    50   30   31 ar
@<TRIPOS>SUBSTRUCTURE
     1 ACP         1 GROUP 0 A     ****
@<TRIPOS>MOLECULE
[[5-(6-aminopurin-9-yl)-3,4-dihydroxy-tetrahydrofuran-2-yl]methoxy-hydroxy-phosphoryl]oxy-(phosphonomethyl)phosphinate
   48    50     1     0     0
SMALL
USER_CHARGES

@<TRIPOS>ATOM
      1 PG         -3.9730    3.8943    4.4904 P.3       1 ACP         1.6292
      2 O1G        -3.5452    2.4889    4.7891 O.2       1 ACP        -0.8674
      3 O2G        -4.2752    4.2138    2.9358 O.3       1 ACP        -0.7977
      4 O3G        -5.3123    4.3870    5.2476 O.3       1 ACP        -0.7977
      5 PB         -1.0551    5.1975    4.2251 P.3       1 ACP         1.4910
      6 O1B        -0.3840    3.8922    4.5849 O.co2     1 ACP        -0.8292
      7 O2B        -0.4535    6.5375    4.5801 O.co2     1 ACP        -0.8292
      8 C3B        -2.7586    5.1535    4.9444 C.3       1 ACP        -0.6453
      9 PA         -0.5525    5.0215    1.3253 P.3       1 ACP         1.7996
     10 O1A         0.4935    6.0854    1.1588 O.2       1 ACP        -0.8588
     11 O2A        -1.6302    4.9500    0.1208 O.3       1 ACP        -0.8037
     12 O3A        -1.4691    5.1810    2.6482 O.3       1 ACP        -0.7988
     13 O5'         0.0170    3.5129    1.4593 O.3       1 ACP        -0.5960
     14 C5'        -0.8811    2.4285    1.6206 C.3       1 ACP         0.1917
     15 C4'        -0.1994    1.3333    2.4288 C.3       1 ACP         0.0908
     16 O4'        -1.1285    0.2356    2.5840 O.3       1 ACP        -0.4111
     17 C3'         1.0324    0.7610    1.7344 C.3       1 ACP         0.0927
     18 O3'         1.9175    0.2377    2.7247 O.3       1 ACP        -0.6127
     19 C2'         0.4468   -0.3802    0.9263 C.3       1 ACP         0.1095
     20 O2'         1.3993   -1.3703    0.5961 O.3       1 ACP        -0.5953
     21 C1'        -0.6159   -0.9100    1.8769 C.3       1 ACP         0.4273
     22 N9         -1.7127   -1.6108    1.2130 N.pl3     1 ACP        -0.6934
     23 C8         -2.0877   -2.9101    1.4304 C.ar      1 ACP         0.5422
     24 N7         -3.1152   -3.2613    0.6857 N.2       1 ACP        -0.5596
     25 C5         -3.4186   -2.1409   -0.0462 C.ar      1 ACP        -0.2259
     26 C6         -4.3953   -1.8809   -1.0023 C.ar      1 ACP         0.7526
     27 N6         -5.3118   -2.8767   -1.3812 N.pl3     1 ACP        -0.9660
     28 N1         -4.4538   -0.6507   -1.5667 N.ar      1 ACP        -0.8027
     29 C2         -3.5442    0.2679   -1.1609 C.ar      1 ACP         0.6758
     30 N3         -2.5561    0.1361   -0.2491 N.ar      1 ACP        -0.7221
     31 C4         -2.5568   -1.1019    0.2674 C.ar      1 ACP         0.5858
     32 HOG2       -3.5566    4.0981    2.2783 H         1 ACP         0.4705
     33 HOG3       -6.1513    3.9028    5.0928 H         1 ACP         0.4705
     34 H3B1       -3.2064    6.1278    4.7181 H         1 ACP         0.1189
     35 H3B2       -2.6264    5.1083    6.0314 H         1 ACP         0.1189
     36 HOA2       -2.1821    5.7384   -0.0690 H         1 ACP         0.4679
     37 H5'1       -1.7775    2.7842    2.1389 H         1 ACP         0.0587
     38 H5'2       -1.1659    2.0534    0.6322 H         1 ACP         0.0587
     39 H4'         0.0402    1.7079    3.4342 H         1 ACP         0.0938
     40 H3'         1.5907    1.4859    1.1353 H         1 ACP         0.0597
     41 HO3'        2.1521    0.9800    3.3017 H         1 ACP         0.4554
     42 H2'        -0.0017    0.0018    0.0005 H         1 ACP         0.0710
     43 HO2'        0.9369   -2.0558    0.0825 H         1 ACP         0.4360
     44 H1'        -0.1998   -1.6319    2.6178 H         1 ACP         0.1247
     45 H8         -1.5778   -3.5473    2.1399 H         1 ACP         0.0875
     46 HN61       -6.0371   -2.6553   -2.0368 H         1 ACP         0.4433
     47 HN62       -5.2887   -3.7677   -0.9225 H         1 ACP         0.4433
     48 H2         -3.6201    1.2414   -1.6336 H         1 ACP         0.0459
@<TRIPOS>BOND
     1    1    2 2
     2    1    3 1
     3    1    4 1
     4    1    8 1
     5    3   32 1
     6    4   33 1
     7    5    6 2
     8    5    7 1
     9    5    8 1
    10    5   12 1
    11    8   34 1
    12    8   35 1
    13    9   10 2
    14    9   11 1
    15    9   12 1
    16    9   13 1
    17   11   36 1
    18   13   14 1
    19   14   15 1
    20   14   37 1
    21   14   38 1
    22   15   16 1
    23   15   17 1
    24   15   39 1
    25   16   21 1
    26   17   18 1
    27   17   19 1
    28   17   40 1
    29   18   41 1
    30   19   20 1
    31   19   21 1
    32   19   42 1
    33   20   43 1
    34   21   22 1
    35   21   44 1
    36   22   23 ar
    37   22   31 ar
    38   23   24 ar
    39   23   45 1
    40   24   25 ar
    41   25   26 ar
    42   25   31 ar
    43   26   27 1
    44   26   28 ar
    45   27   46 1
    46   27   47 1
    47   28   29 ar
    48   29   30 ar
    49   29   48 1
    50   30   31 ar
@<TRIPOS>SUBSTRUCTURE
     1 ACP         1 GROUP 0 A     ****
@<TRIPOS>MOLECULE
[[5-(6-aminopurin-9-yl)-3,4-dihydroxy-tetrahydrofuran-2-yl]methoxy-hydroxy-phosphoryl]oxy-(phosphonomethyl)phosphinate
   48    50     1     0     0
SMALL
USER_CHARGES

@<TRIPOS>ATOM
      1 PG          7.1108    5.9548    2.0645 P.3       1 ACP         1.6292
      2 O1G         5.7334    5.4210    2.3198 O.2       1 ACP        -0.8674
      3 O2G         7.1856    7.5114    1.6385 O.3       1 ACP        -0.7977
      4 O3G         8.1361    5.8510    3.3086 O.3       1 ACP        -0.7977
      5 PB          8.3785    3.3070    0.7742 P.3       1 ACP         1.4910
      6 O1B         9.2312    3.0583    1.9968 O.co2     1 ACP        -0.8292
      7 O2B         8.8251    2.9104   -0.6139 O.co2     1 ACP        -0.8292
      8 C3B         7.9976    5.1166    0.7313 C.3       1 ACP        -0.6453
      9 PA          6.3383    1.2707    1.3934 P.3       1 ACP         1.7996
     10 O1A         6.8983    0.6915    2.6601 O.2       1 ACP        -0.8588
     11 O2A         6.6824    0.4202    0.0609 O.3       1 ACP        -0.8037
     12 O3A         6.8669    2.7585    1.0432 O.3       1 ACP        -0.7988
     13 O5'         4.7297    1.4430    1.3689 O.3       1 ACP        -0.5960
     14 C5'         4.0922    1.9801    0.2227 C.3       1 ACP         0.1917
     15 C4'         2.5944    2.0310    0.4653 C.3       1 ACP         0.0908
     16 O4'         1.9327    2.5740   -0.6889 O.3       1 ACP        -0.4111
     17 C3'         1.9685    0.6634    0.6767 C.3       1 ACP         0.0927
     18 O3'         2.1425    0.1975    1.9977 O.3       1 ACP        -0.6127
     19 C2'         0.5176    0.9128    0.3099 C.3       1 ACP         0.1095
     20 O2'        -0.2103    1.4454    1.4152 O.3       1 ACP        -0.5953
     21 C1'         0.6219    1.9765   -0.7844 C.3       1 ACP         0.4273
     22 N9          0.4237    1.4496   -2.1357 N.pl3     1 ACP        -0.6934
     23 C8          1.4026    0.9717   -2.9660 C.ar      1 ACP         0.5422
     24 N7          0.9183    0.5619   -4.1197 N.2       1 ACP        -0.5596
     25 C5         -0.4330    0.7845   -4.0331 C.ar      1 ACP        -0.2259
     26 C6         -1.4794    0.5615   -4.9225 C.ar      1 ACP         0.7526
     27 N6         -1.2378    0.0044   -6.1899 N.pl3     1 ACP        -0.9660
     28 N1         -2.7406    0.8885   -4.5512 N.ar      1 ACP        -0.8027
     29 C2         -2.9113    1.4216   -3.3172 C.ar      1 ACP         0.6758
     30 N3         -1.9824    1.6843   -2.3721 N.ar      1 ACP        -0.7221
     31 C4         -0.7613    1.3370   -2.8054 C.ar      1 ACP         0.5858
     32 HOG2        6.8381    8.1903    2.2553 H         1 ACP         0.4705
     33 HOG3        9.0520    6.1849    3.1989 H         1 ACP         0.4705
     34 H3B1        7.4257    5.2823   -0.1886 H         1 ACP         0.1189
     35 H3B2        8.9602    5.6249    0.6041 H         1 ACP         0.1189
     36 HOA2        6.3789   -0.5107    0.0009 H         1 ACP         0.4679
     37 H5'1        4.4838    2.9857    0.0374 H         1 ACP         0.0587
     38 H5'2        4.3186    1.3449   -0.6398 H         1 ACP         0.0587
     39 H4'         2.3752    2.7029    1.3156 H         1 ACP         0.0938
     40 H3'         2.4336   -0.1217   -0.0016 H         1 ACP         0.0597
     41 HO3'        3.0987    0.1465    2.1461 H         1 ACP         0.4554
     42 H2'         0.0316    0.0155   -0.0339 H         1 ACP         0.0710
     43 HO2'       -0.1608    0.7921    2.1351 H         1 ACP         0.4360
     44 H1'        -0.1474    2.7798   -0.6651 H         1 ACP         0.1247
     45 H8          2.4442    0.9470   -2.6763 H         1 ACP         0.0875
     46 HN61       -0.2955   -0.1901   -6.4713 H         1 ACP         0.4433
     47 HN62       -1.9987   -0.1045   -6.8334 H         1 ACP         0.4433
     48 H2         -3.9335    1.6716   -3.0534 H         1 ACP         0.0459
@<TRIPOS>BOND
     1    1    2 2
     2    1    3 1
     3    1    4 1
     4    1    8 1
     5    3   32 1
     6    4   33 1
     7    5    6 2
     8    5    7 1
     9    5    8 1
    10    5   12 1
    11    8   34 1
    12    8   35 1
    13    9   10 2
    14    9   11 1
    15    9   12 1
    16    9   13 1
    17   11   36 1
    18   13   14 1
    19   14   15 1
    20   14   37 1
    21   14   38 1
    22   15   16 1
    23   15   17 1
    24   15   39 1
    25   16   21 1
    26   17   18 1
    27   17   19 1
    28   17   40 1
    29   18   41 1
    30   19   20 1
    31   19   21 1
    32   19   42 1
    33   20   43 1
    34   21   22 1
    35   21   44 1
    36   22   23 ar
    37   22   31 ar
    38   23   24 ar
    39   23   45 1
    40   24   25 ar
    41   25   26 ar
    42   25   31 ar
    43   26   27 1
    44   26   28 ar
    45   27   46 1
    46   27   47 1
    47   28   29 ar
    48   29   30 ar
    49   29   48 1
    50   30   31 ar
@<TRIPOS>SUBSTRUCTURE
     1 ACP         1 GROUP 0 A     ****
@<TRIPOS>MOLECULE
[[5-(6-aminopurin-9-yl)-3,4-dihydroxy-tetrahydrofuran-2-yl]methoxy-hydroxy-phosphoryl]oxy-(phosphonomethyl)phosphinate
   48    50     1     0     0
SMALL
USER_CHARGES

@<TRIPOS>ATOM
      1 PG         -0.2886   -2.9026   -3.2272 P.3       1 ACP         1.6292
      2 O1G        -0.1129   -1.8403   -2.1840 O.2       1 ACP        -0.8674
      3 O2G         1.0059   -3.1930   -4.1491 O.3       1 ACP        -0.7977
      4 O3G        -0.6931   -4.3632   -2.6679 O.3       1 ACP        -0.7977
      5 PB         -1.5533   -1.0592   -5.5261 P.3       1 ACP         1.4910
      6 O1B        -2.7923   -1.1088   -6.3899 O.co2     1 ACP        -0.8292
      7 O2B        -0.1644   -0.9662   -6.1141 O.co2     1 ACP        -0.8292
      8 C3B        -1.5874   -2.5517   -4.4341 C.3       1 ACP        -0.6453
      9 PA         -1.9945    1.6688   -4.4986 P.3       1 ACP         1.7996
     10 O1A        -3.2503    2.0428   -5.2313 O.2       1 ACP        -0.8588
     11 O2A        -0.6345    2.2202   -5.1794 O.3       1 ACP        -0.8037
     12 O3A        -1.7390    0.0769   -4.3715 O.3       1 ACP        -0.7988
     13 O5'        -1.9198    2.1711   -2.9623 O.3       1 ACP        -0.5960
     14 C5'        -0.7794    1.8744   -2.1748 C.3       1 ACP         0.1917
     15 C4'        -0.9699    2.4597   -0.7819 C.3       1 ACP         0.0908
     16 O4'        -2.1475    1.8640   -0.2014 O.3       1 ACP        -0.4111
     17 C3'         0.1697    2.1347    0.1695 C.3       1 ACP         0.0927
     18 O3'         0.1809    3.0982    1.2223 O.3       1 ACP        -0.6127
     19 C2'        -0.2543    0.7880    0.7187 C.3       1 ACP         0.1095
     20 O2'         0.3606    0.4944    1.9582 O.3       1 ACP        -0.5953
     21 C1'        -1.7682    0.9516    0.8548 C.3       1 ACP         0.4273
     22 N9         -2.5926   -0.2553    0.7436 N.pl3     1 ACP        -0.6934
     23 C8         -2.1324   -1.5302    0.5457 C.ar      1 ACP         0.5422
     24 N7         -3.1118   -2.4085    0.4915 N.2       1 ACP        -0.5596
     25 C5         -4.2561   -1.6704    0.6612 C.ar      1 ACP        -0.2259
     26 C6         -5.6018   -2.0215    0.6998 C.ar      1 ACP         0.7526
     27 N6         -5.9988   -3.3610    0.5479 N.pl3     1 ACP        -0.9660
     28 N1         -6.5303   -1.0528    0.8871 N.ar      1 ACP        -0.8027
     29 C2         -6.0872    0.2199    1.0276 C.ar      1 ACP         0.6758
     30 N3         -4.8179    0.6820    1.0081 N.ar      1 ACP        -0.7221
     31 C4         -3.9544   -0.3272    0.8198 C.ar      1 ACP         0.5858
     32 HOG2        1.3766   -2.4644   -4.6912 H         1 ACP         0.4705
     33 HOG3       -0.0880   -4.8174   -2.0435 H         1 ACP         0.4705
     34 H3B1       -1.6430   -3.4155   -5.1061 H         1 ACP         0.1189
     35 H3B2       -2.5389   -2.5078   -3.8921 H         1 ACP         0.1189
     36 HOA2       -0.4163    1.9432   -6.0948 H         1 ACP         0.4679
     37 H5'1       -0.6593    0.7876   -2.1195 H         1 ACP         0.0587
     38 H5'2        0.1050    2.3070   -2.6537 H         1 ACP         0.0587
     39 H4'        -1.1469    3.5409   -0.8523 H         1 ACP         0.0938
     40 H3'         1.1601    2.1310   -0.2934 H         1 ACP         0.0597
     41 HO3'        0.3098    3.9616    0.8017 H         1 ACP         0.4554
     42 H2'        -0.0024   -0.0091    0.0062 H         1 ACP         0.0710
     43 HO2'        1.3225    0.4909    1.8095 H         1 ACP         0.4360
     44 H1'        -2.0584    1.4255    1.8301 H         1 ACP         0.1247
     45 H8         -1.0791   -1.7555    0.4498 H         1 ACP         0.0875
     46 HN61       -5.3067   -4.0623    0.3633 H         1 ACP         0.4433
     47 HN62       -6.9754   -3.5867    0.5317 H         1 ACP         0.4433
     48 H2         -6.8575    0.9694    1.1755 H         1 ACP         0.0459
@<TRIPOS>BOND
     1    1    2 2
     2    1    3 1
     3    1    4 1
     4    1    8 1
     5    3   32 1
     6    4   33 1
     7    5    6 2
     8    5    7 1
     9    5    8 1
    10    5   12 1
    11    8   34 1
    12    8   35 1
    13    9   10 2
    14    9   11 1
    15    9   12 1
    16    9   13 1
    17   11   36 1
    18   13   14 1
    19   14   15 1
    20   14   37 1
    21   14   38 1
    22   15   16 1
    23   15   17 1
    24   15   39 1
    25   16   21 1
    26   17   18 1
    27   17   19 1
    28   17   40 1
    29   18   41 1
    30   19   20 1
    31   19   21 1
    32   19   42 1
    33   20   43 1
    34   21   22 1
    35   21   44 1
    36   22   23 ar
    37   22   31 ar
    38   23   24 ar
    39   23   45 1
    40   24   25 ar
    41   25   26 ar
    42   25   31 ar
    43   26   27 1
    44   26   28 ar
    45   27   46 1
    46   27   47 1
    47   28   29 ar
    48   29   30 ar
    49   29   48 1
    50   30   31 ar
@<TRIPOS>SUBSTRUCTURE
     1 ACP         1 GROUP 0 A     ****
@<TRIPOS>MOLECULE
[[5-(6-aminopurin-9-yl)-3,4-dihydroxy-tetrahydrofuran-2-yl]methoxy-hydroxy-phosphoryl]oxy-(phosphonomethyl)phosphinate
   48    50     1     0     0
SMALL
USER_CHARGES

@<TRIPOS>ATOM
      1 PG         -0.9699   -2.4406   -3.3100 P.3       1 ACP         1.6292
      2 O1G        -0.9984   -2.2449   -1.8240 O.2       1 ACP        -0.8674
      3 O2G         0.1360   -1.5715   -4.1049 O.3       1 ACP        -0.7977
      4 O3G        -0.6929   -3.9532   -3.8049 O.3       1 ACP        -0.7977
      5 PB         -3.2427   -0.3133   -4.0793 P.3       1 ACP         1.4910
      6 O1B        -3.5115    0.0013   -2.6259 O.co2     1 ACP        -0.8292
      7 O2B        -4.3256   -0.2490   -5.1312 O.co2     1 ACP        -0.8292
      8 C3B        -2.5139   -2.0120   -4.1460 C.3       1 ACP        -0.6453
      9 PA         -1.6646    2.1132   -4.6402 P.3       1 ACP         1.7996
     10 O1A        -2.6285    2.8802   -5.4982 O.2       1 ACP        -0.8588
     11 O2A        -0.1202    2.2215   -5.1097 O.3       1 ACP        -0.8037
     12 O3A        -1.9353    0.5196   -4.5844 O.3       1 ACP        -0.7988
     13 O5'        -1.6512    2.5329   -3.0776 O.3       1 ACP        -0.5960
     14 C5'        -0.7794    1.8744   -2.1748 C.3       1 ACP         0.1917
     15 C4'        -0.9699    2.4597   -0.7819 C.3       1 ACP         0.0908
     16 O4'        -2.1475    1.8640   -0.2014 O.3       1 ACP        -0.4111
     17 C3'         0.1697    2.1347    0.1695 C.3       1 ACP         0.0927
     18 O3'         0.1809    3.0982    1.2223 O.3       1 ACP        -0.6127
     19 C2'        -0.2543    0.7880    0.7187 C.3       1 ACP         0.1095
     20 O2'         0.3606    0.4944    1.9582 O.3       1 ACP        -0.5953
     21 C1'        -1.7682    0.9516    0.8548 C.3       1 ACP         0.4273
     22 N9         -2.5926   -0.2553    0.7436 N.pl3     1 ACP        -0.6934
     23 C8         -3.8700   -0.3163    0.2529 C.ar      1 ACP         0.5422
     24 N7         -4.3522   -1.5414    0.2751 N.2       1 ACP        -0.5596
     25 C5         -3.3434   -2.3070    0.8036 C.ar      1 ACP        -0.2259
     26 C6         -3.2433   -3.6673    1.0777 C.ar      1 ACP         0.7526
     27 N6         -4.3152   -4.5349    0.8066 N.pl3     1 ACP        -0.9660
     28 N1         -2.0949   -4.1491    1.6112 N.ar      1 ACP        -0.8027
     29 C2         -1.0966   -3.2647    1.8500 C.ar      1 ACP         0.6758
     30 N3         -1.0746   -1.9321    1.6291 N.ar      1 ACP        -0.7221
     31 C4         -2.2390   -1.5249    1.1020 C.ar      1 ACP         0.5858
     32 HOG2        0.1005   -0.5927   -4.0502 H         1 ACP         0.4705
     33 HOG3        0.1453   -4.3922   -3.5459 H         1 ACP         0.4705
     34 H3B1       -2.3772   -2.2396   -5.2092 H         1 ACP         0.1189
     35 H3B2       -3.2908   -2.6889   -3.7725 H         1 ACP         0.1189
     36 HOA2        0.1258    1.9096   -6.0065 H         1 ACP         0.4679
     37 H5'1       -1.0110    0.8043   -2.1746 H         1 ACP         0.0587
     38 H5'2        0.2528    2.0159   -2.5111 H         1 ACP         0.0587
     39 H4'        -1.1469    3.5409   -0.8523 H         1 ACP         0.0938
     40 H3'         1.1601    2.1310   -0.2934 H         1 ACP         0.0597
     41 HO3'        0.3098    3.9616    0.8017 H         1 ACP         0.4554
     42 H2'        -0.0024   -0.0091    0.0062 H         1 ACP         0.0710
     43 HO2'        1.3225    0.4909    1.8095 H         1 ACP         0.4360
     44 H1'        -2.0584    1.4255    1.8301 H         1 ACP         0.1247
     45 H8         -4.3937    0.5597   -0.1045 H         1 ACP         0.0875
     46 HN61       -5.1761   -4.1600    0.4557 H         1 ACP         0.4433
     47 HN62       -4.2402   -5.5032    1.0550 H         1 ACP         0.4433
     48 H2         -0.1923   -3.6849    2.2775 H         1 ACP         0.0459
@<TRIPOS>BOND
     1    1    2 2
     2    1    3 1
     3    1    4 1
     4    1    8 1
     5    3   32 1
     6    4   33 1
     7    5    6 2
     8    5    7 1
     9    5    8 1
    10    5   12 1
    11    8   34 1
    12    8   35 1
    13    9   10 2
    14    9   11 1
    15    9   12 1
    16    9   13 1
    17   11   36 1
    18   13   14 1
    19   14   15 1
    20   14   37 1
    21   14   38 1
    22   15   16 1
    23   15   17 1
    24   15   39 1
    25   16   21 1
    26   17   18 1
    27   17   19 1
    28   17   40 1
    29   18   41 1
    30   19   20 1
    31   19   21 1
    32   19   42 1
    33   20   43 1
    34   21   22 1
    35   21   44 1
    36   22   23 ar
    37   22   31 ar
    38   23   24 ar
    39   23   45 1
    40   24   25 ar
    41   25   26 ar
    42   25   31 ar
    43   26   27 1
    44   26   28 ar
    45   27   46 1
    46   27   47 1
    47   28   29 ar
    48   29   30 ar
    49   29   48 1
    50   30   31 ar
@<TRIPOS>SUBSTRUCTURE
     1 ACP         1 GROUP 0 A     ****
@<TRIPOS>MOLECULE
[[5-(6-aminopurin-9-yl)-3,4-dihydroxy-tetrahydrofuran-2-yl]methoxy-hydroxy-phosphoryl]oxy-(phosphonomethyl)phosphinate
   48    50     1     0     0
SMALL
USER_CHARGES

@<TRIPOS>ATOM
      1 PG          7.4346    0.1689    3.3398 P.3       1 ACP         1.6292
      2 O1G         6.0748    0.7851    3.2035 O.2       1 ACP        -0.8674
      3 O2G         8.6448    1.2058    3.6049 O.3       1 ACP        -0.7977
      4 O3G         7.5902   -0.9105    4.5316 O.3       1 ACP        -0.7977
      5 PB          8.1785    0.0463    0.2230 P.3       1 ACP         1.4910
      6 O1B         8.6503   -1.0248   -0.7329 O.co2     1 ACP        -0.8292
      7 O2B         8.9406    1.3348    0.4291 O.co2     1 ACP        -0.8292
      8 C3B         7.9850   -0.7475    1.8824 C.3       1 ACP        -0.6453
      9 PA          5.8746    0.9206   -1.3958 P.3       1 ACP         1.7996
     10 O1A         6.0243    0.0318   -2.5963 O.2       1 ACP        -0.8588
     11 O2A         6.4832    2.4075   -1.5854 O.3       1 ACP        -0.8037
     12 O3A         6.6072    0.3762   -0.0606 O.3       1 ACP        -0.7988
     13 O5'         4.3521    1.1579   -0.9020 O.3       1 ACP        -0.5960
     14 C5'         4.0922    1.9801    0.2227 C.3       1 ACP         0.1917
     15 C4'         2.5944    2.0310    0.4653 C.3       1 ACP         0.0908
     16 O4'         1.9327    2.5740   -0.6889 O.3       1 ACP        -0.4111
     17 C3'         1.9685    0.6634    0.6767 C.3       1 ACP         0.0927
     18 O3'         2.1425    0.1975    1.9977 O.3       1 ACP        -0.6127
     19 C2'         0.5176    0.9128    0.3099 C.3       1 ACP         0.1095
     20 O2'        -0.2103    1.4454    1.4152 O.3       1 ACP        -0.5953
     21 C1'         0.6219    1.9765   -0.7844 C.3       1 ACP         0.4273
     22 N9          0.4237    1.4496   -2.1357 N.pl3     1 ACP        -0.6934
     23 C8          1.4026    0.9717   -2.9660 C.ar      1 ACP         0.5422
     24 N7          0.9183    0.5619   -4.1197 N.2       1 ACP        -0.5596
     25 C5         -0.4330    0.7845   -4.0331 C.ar      1 ACP        -0.2259
     26 C6         -1.4794    0.5615   -4.9225 C.ar      1 ACP         0.7526
     27 N6         -1.2378    0.0044   -6.1899 N.pl3     1 ACP        -0.9660
     28 N1         -2.7406    0.8885   -4.5512 N.ar      1 ACP        -0.8027
     29 C2         -2.9113    1.4216   -3.3172 C.ar      1 ACP         0.6758
     30 N3         -1.9824    1.6843   -2.3721 N.ar      1 ACP        -0.7221
     31 C4         -0.7613    1.3370   -2.8054 C.ar      1 ACP         0.5858
     32 HOG2        9.5566    0.8575    3.7021 H         1 ACP         0.4705
     33 HOG3        7.4243   -0.6257    5.4556 H         1 ACP         0.4705
     34 H3B1        8.9622   -1.1800    2.1253 H         1 ACP         0.1189
     35 H3B2        7.2928   -1.5848    1.7378 H         1 ACP         0.1189
     36 HOA2        6.1250    2.9792   -2.2976 H         1 ACP         0.4679
     37 H5'1        4.6066    1.5623    1.0942 H         1 ACP         0.0587
     38 H5'2        4.4821    2.9842    0.0261 H         1 ACP         0.0587
     39 H4'         2.3752    2.7029    1.3156 H         1 ACP         0.0938
     40 H3'         2.4336   -0.1217   -0.0016 H         1 ACP         0.0597
     41 HO3'        1.7160   -0.6716    2.0397 H         1 ACP         0.4554
     42 H2'         0.0316    0.0155   -0.0339 H         1 ACP         0.0710
     43 HO2'       -0.1608    0.7921    2.1351 H         1 ACP         0.4360
     44 H1'        -0.1474    2.7798   -0.6651 H         1 ACP         0.1247
     45 H8          2.4442    0.9470   -2.6763 H         1 ACP         0.0875
     46 HN61       -0.2955   -0.1901   -6.4713 H         1 ACP         0.4433
     47 HN62       -1.9987   -0.1045   -6.8334 H         1 ACP         0.4433
     48 H2         -3.9335    1.6716   -3.0534 H         1 ACP         0.0459
@<TRIPOS>BOND
     1    1    2 2
     2    1    3 1
     3    1    4 1
     4    1    8 1
     5    3   32 1
     6    4   33 1
     7    5    6 2
     8    5    7 1
     9    5    8 1
    10    5   12 1
    11    8   34 1
    12    8   35 1
    13    9   10 2
    14    9   11 1
    15    9   12 1
    16    9   13 1
    17   11   36 1
    18   13   14 1
    19   14   15 1
    20   14   37 1
    21   14   38 1
    22   15   16 1
    23   15   17 1
    24   15   39 1
    25   16   21 1
    26   17   18 1
    27   17   19 1
    28   17   40 1
    29   18   41 1
    30   19   20 1
    31   19   21 1
    32   19   42 1
    33   20   43 1
    34   21   22 1
    35   21   44 1
    36   22   23 ar
    37   22   31 ar
    38   23   24 ar
    39   23   45 1
    40   24   25 ar
    41   25   26 ar
    42   25   31 ar
    43   26   27 1
    44   26   28 ar
    45   27   46 1
    46   27   47 1
    47   28   29 ar
    48   29   30 ar
    49   29   48 1
    50   30   31 ar
@<TRIPOS>SUBSTRUCTURE
     1 ACP         1 GROUP 0 A     ****
@<TRIPOS>MOLECULE
[[5-(6-aminopurin-9-yl)-3,4-dihydroxy-tetrahydrofuran-2-yl]methoxy-hydroxy-phosphoryl]oxy-(phosphonomethyl)phosphinate
   48    50     1     0     0
SMALL
USER_CHARGES

@<TRIPOS>ATOM
      1 PG          0.9014    6.7883    0.2125 P.3       1 ACP         1.6292
      2 O1G         0.7597    5.3375   -0.1371 O.2       1 ACP        -0.8674
      3 O2G         2.2484    7.1825    1.0127 O.3       1 ACP        -0.7977
      4 O3G         0.8911    7.8076   -1.0408 O.3       1 ACP        -0.7977
      5 PB         -0.7559    6.7452    2.9574 P.3       1 ACP         1.4910
      6 O1B        -1.9145    7.5276    3.5311 O.co2     1 ACP        -0.8292
      7 O2B         0.5707    6.6298    3.6716 O.co2     1 ACP        -0.8292
      8 C3B        -0.4140    7.4294    1.2732 C.3       1 ACP        -0.6453
      9 PA         -1.9391    4.0774    3.3757 P.3       1 ACP         1.7996
     10 O1A        -3.2310    4.4475    4.0450 O.2       1 ACP        -0.8588
     11 O2A        -0.7613    3.6379    4.3940 O.3       1 ACP        -0.8037
     12 O3A        -1.2682    5.2646    2.5062 O.3       1 ACP        -0.7988
     13 O5'        -2.0397    2.8622    2.3121 O.3       1 ACP        -0.5960
     14 C5'        -0.8811    2.4285    1.6206 C.3       1 ACP         0.1917
     15 C4'        -0.1994    1.3333    2.4288 C.3       1 ACP         0.0908
     16 O4'        -1.1285    0.2356    2.5840 O.3       1 ACP        -0.4111
     17 C3'         1.0324    0.7610    1.7344 C.3       1 ACP         0.0927
     18 O3'         1.9175    0.2377    2.7247 O.3       1 ACP        -0.6127
     19 C2'         0.4468   -0.3802    0.9263 C.3       1 ACP         0.1095
     20 O2'         1.3993   -1.3703    0.5961 O.3       1 ACP        -0.5953
     21 C1'        -0.6159   -0.9100    1.8769 C.3       1 ACP         0.4273
     22 N9         -1.7127   -1.6108    1.2130 N.pl3     1 ACP        -0.6934
     23 C8         -2.8641   -1.0399    0.7392 C.ar      1 ACP         0.5422
     24 N7         -3.6659   -1.9257    0.1858 N.2       1 ACP        -0.5596
     25 C5         -3.0053   -3.1223    0.3069 C.ar      1 ACP        -0.2259
     26 C6         -3.3321   -4.4178   -0.0813 C.ar      1 ACP         0.7526
     27 N6         -4.5476   -4.6866   -0.7335 N.pl3     1 ACP        -0.9660
     28 N1         -2.4608   -5.4225    0.1773 N.ar      1 ACP        -0.8027
     29 C2         -1.3053   -5.1020    0.8081 C.ar      1 ACP         0.6758
     30 N3         -0.8788   -3.8921    1.2315 N.ar      1 ACP        -0.7221
     31 C4         -1.7870   -2.9477    0.9438 C.ar      1 ACP         0.5858
     32 HOG2        2.3935    8.1187    1.2672 H         1 ACP         0.4705
     33 HOG3        1.5806    7.7173   -1.7326 H         1 ACP         0.4705
     34 H3B1       -0.2190    8.4983    1.4161 H         1 ACP         0.1189
     35 H3B2       -1.3553    7.3487    0.7176 H         1 ACP         0.1189
     36 HOA2       -0.4545    4.2797    5.0694 H         1 ACP         0.4679
     37 H5'1       -1.1760    2.0499    0.6365 H         1 ACP         0.0587
     38 H5'2       -0.2073    3.2811    1.4873 H         1 ACP         0.0587
     39 H4'         0.0402    1.7079    3.4342 H         1 ACP         0.0938
     40 H3'         1.5907    1.4859    1.1353 H         1 ACP         0.0597
     41 HO3'        2.6839   -0.1150    2.2479 H         1 ACP         0.4554
     42 H2'        -0.0017    0.0018    0.0005 H         1 ACP         0.0710
     43 HO2'        2.0953   -0.9375    0.0709 H         1 ACP         0.4360
     44 H1'        -0.1998   -1.6319    2.6178 H         1 ACP         0.1247
     45 H8         -3.0609    0.0200    0.8250 H         1 ACP         0.0875
     46 HN61       -5.2046   -3.9433   -0.8775 H         1 ACP         0.4433
     47 HN62       -4.7849   -5.6332   -0.9625 H         1 ACP         0.4433
     48 H2         -0.6318   -5.9307    0.9993 H         1 ACP         0.0459
@<TRIPOS>BOND
     1    1    2 2
     2    1    3 1
     3    1    4 1
     4    1    8 1
     5    3   32 1
     6    4   33 1
     7    5    6 2
     8    5    7 1
     9    5    8 1
    10    5   12 1
    11    8   34 1
    12    8   35 1
    13    9   10 2
    14    9   11 1
    15    9   12 1
    16    9   13 1
    17   11   36 1
    18   13   14 1
    19   14   15 1
    20   14   37 1
    21   14   38 1
    22   15   16 1
    23   15   17 1
    24   15   39 1
    25   16   21 1
    26   17   18 1
    27   17   19 1
    28   17   40 1
    29   18   41 1
    30   19   20 1
    31   19   21 1
    32   19   42 1
    33   20   43 1
    34   21   22 1
    35   21   44 1
    36   22   23 ar
    37   22   31 ar
    38   23   24 ar
    39   23   45 1
    40   24   25 ar
    41   25   26 ar
    42   25   31 ar
    43   26   27 1
    44   26   28 ar
    45   27   46 1
    46   27   47 1
    47   28   29 ar
    48   29   30 ar
    49   29   48 1
    50   30   31 ar
@<TRIPOS>SUBSTRUCTURE
     1 ACP         1 GROUP 0 A     ****
@<TRIPOS>MOLECULE
[[5-(6-aminopurin-9-yl)-3,4-dihydroxy-tetrahydrofuran-2-yl]methoxy-hydroxy-phosphoryl]oxy-(phosphonomethyl)phosphinate
   48    50     1     0     0
SMALL
USER_CHARGES

@<TRIPOS>ATOM
      1 PG          8.3264    0.6133   -3.7860 P.3       1 ACP         1.6292
      2 O1G         9.0293    1.5055   -4.7645 O.2       1 ACP        -0.8674
      3 O2G         8.3915   -0.9672   -4.1147 O.3       1 ACP        -0.7977
      4 O3G         8.8517    0.7069   -2.2612 O.3       1 ACP        -0.7977
      5 PB          5.8821    2.5666   -3.0839 P.3       1 ACP         1.4910
      6 O1B         4.3755    2.4501   -3.0751 O.co2     1 ACP        -0.8292
      7 O2B         6.6032    3.6336   -3.8744 O.co2     1 ACP        -0.8292
      8 C3B         6.5543    0.9319   -3.6294 C.3       1 ACP        -0.6453
      9 PA          6.1389    3.5429   -0.3138 P.3       1 ACP         1.7996
     10 O1A         6.5226    4.9737   -0.5571 O.2       1 ACP        -0.8588
     11 O2A         6.9057    2.8480    0.9299 O.3       1 ACP        -0.8037
     12 O3A         6.4393    2.5464   -1.5517 O.3       1 ACP        -0.7988
     13 O5'         4.5673    3.2930   -0.0211 O.3       1 ACP        -0.5960
     14 C5'         4.0922    1.9801    0.2227 C.3       1 ACP         0.1917
     15 C4'         2.5944    2.0310    0.4653 C.3       1 ACP         0.0908
     16 O4'         1.9327    2.5740   -0.6889 O.3       1 ACP        -0.4111
     17 C3'         1.9685    0.6634    0.6767 C.3       1 ACP         0.0927
     18 O3'         2.1425    0.1975    1.9977 O.3       1 ACP        -0.6127
     19 C2'         0.5176    0.9128    0.3099 C.3       1 ACP         0.1095
     20 O2'        -0.2103    1.4454    1.4152 O.3       1 ACP        -0.5953
     21 C1'         0.6219    1.9765   -0.7844 C.3       1 ACP         0.4273
     22 N9          0.4237    1.4496   -2.1357 N.pl3     1 ACP        -0.6934
     23 C8          1.1856    0.4888   -2.7458 C.ar      1 ACP         0.5422
     24 N7          0.7615    0.2176   -3.9625 N.2       1 ACP        -0.5596
     25 C5         -0.3220    1.0389   -4.1485 C.ar      1 ACP        -0.2259
     26 C6         -1.1900    1.2182   -5.2210 C.ar      1 ACP         0.7526
     27 N6         -1.0341    0.4739   -6.4028 N.pl3     1 ACP        -0.9660
     28 N1         -2.1929    2.1227   -5.1127 N.ar      1 ACP        -0.8027
     29 C2         -2.2930    2.8097   -3.9492 C.ar      1 ACP         0.6758
     30 N3         -1.5176    2.7252   -2.8462 N.ar      1 ACP        -0.7221
     31 C4         -0.5489    1.8142   -3.0226 C.ar      1 ACP         0.5858
     32 HOG2        9.2671   -1.4064   -4.1660 H         1 ACP         0.4705
     33 HOG3        8.4283    0.1454   -1.5772 H         1 ACP         0.4705
     34 H3B1        6.1045    0.7329   -4.6087 H         1 ACP         0.1189
     35 H3B2        6.1454    0.1900   -2.9341 H         1 ACP         0.1189
     36 HOA2        6.8017    3.2332    1.8260 H         1 ACP         0.4679
     37 H5'1        4.3175    1.3541   -0.6468 H         1 ACP         0.0587
     38 H5'2        4.6079    1.5730    1.0985 H         1 ACP         0.0587
     39 H4'         2.3752    2.7029    1.3156 H         1 ACP         0.0938
     40 H3'         2.4336   -0.1217   -0.0016 H         1 ACP         0.0597
     41 HO3'        3.0987    0.1465    2.1461 H         1 ACP         0.4554
     42 H2'         0.0316    0.0155   -0.0339 H         1 ACP         0.0710
     43 HO2'       -1.1270    1.5823    1.1180 H         1 ACP         0.4360
     44 H1'        -0.1474    2.7798   -0.6651 H         1 ACP         0.1247
     45 H8          2.0314    0.0256   -2.2564 H         1 ACP         0.0875
     46 HN61       -0.2609   -0.1582   -6.4888 H         1 ACP         0.4433
     47 HN62       -1.6409    0.6517   -7.1807 H         1 ACP         0.4433
     48 H2         -3.1067    3.5253   -3.8975 H         1 ACP         0.0459
@<TRIPOS>BOND
     1    1    2 2
     2    1    3 1
     3    1    4 1
     4    1    8 1
     5    3   32 1
     6    4   33 1
     7    5    6 2
     8    5    7 1
     9    5    8 1
    10    5   12 1
    11    8   34 1
    12    8   35 1
    13    9   10 2
    14    9   11 1
    15    9   12 1
    16    9   13 1
    17   11   36 1
    18   13   14 1
    19   14   15 1
    20   14   37 1
    21   14   38 1
    22   15   16 1
    23   15   17 1
    24   15   39 1
    25   16   21 1
    26   17   18 1
    27   17   19 1
    28   17   40 1
    29   18   41 1
    30   19   20 1
    31   19   21 1
    32   19   42 1
    33   20   43 1
    34   21   22 1
    35   21   44 1
    36   22   23 ar
    37   22   31 ar
    38   23   24 ar
    39   23   45 1
    40   24   25 ar
    41   25   26 ar
    42   25   31 ar
    43   26   27 1
    44   26   28 ar
    45   27   46 1
    46   27   47 1
    47   28   29 ar
    48   29   30 ar
    49   29   48 1
    50   30   31 ar
@<TRIPOS>SUBSTRUCTURE
     1 ACP         1 GROUP 0 A     ****
@<TRIPOS>MOLECULE
[[5-(6-aminopurin-9-yl)-3,4-dihydroxy-tetrahydrofuran-2-yl]methoxy-hydroxy-phosphoryl]oxy-(phosphonomethyl)phosphinate
   48    50     1     0     0
SMALL
USER_CHARGES

@<TRIPOS>ATOM
      1 PG          7.8930   -0.5960   -1.5340 P.3       1 ACP         1.6292
      2 O1G         6.4074   -0.5601   -1.3365 O.2       1 ACP        -0.8674
      3 O2G         8.7335   -1.3190   -0.3589 O.3       1 ACP        -0.7977
      4 O3G         8.3961   -1.3415   -2.8759 O.3       1 ACP        -0.7977
      5 PB          8.5731    2.2823   -0.2947 P.3       1 ACP         1.4910
      6 O1B         9.3296    3.5056   -0.7580 O.co2     1 ACP        -0.8292
      7 O2B         8.9090    1.5672    0.9935 O.co2     1 ACP        -0.8292
      8 C3B         8.6664    1.0330   -1.6555 C.3       1 ACP        -0.6453
      9 PA          6.0788    3.6958    0.3928 P.3       1 ACP         1.7996
     10 O1A         6.4678    5.1128    0.0855 O.2       1 ACP        -0.8588
     11 O2A         6.1996    3.2939    1.9553 O.3       1 ACP        -0.8037
     12 O3A         6.9706    2.5756   -0.3591 O.3       1 ACP        -0.7988
     13 O5'         4.5673    3.2930   -0.0211 O.3       1 ACP        -0.5960
     14 C5'         4.0922    1.9801    0.2227 C.3       1 ACP         0.1917
     15 C4'         2.5944    2.0310    0.4653 C.3       1 ACP         0.0908
     16 O4'         1.9327    2.5740   -0.6889 O.3       1 ACP        -0.4111
     17 C3'         1.9685    0.6634    0.6767 C.3       1 ACP         0.0927
     18 O3'         2.1425    0.1975    1.9977 O.3       1 ACP        -0.6127
     19 C2'         0.5176    0.9128    0.3099 C.3       1 ACP         0.1095
     20 O2'        -0.2103    1.4454    1.4152 O.3       1 ACP        -0.5953
     21 C1'         0.6219    1.9765   -0.7844 C.3       1 ACP         0.4273
     22 N9          0.4237    1.4496   -2.1357 N.pl3     1 ACP        -0.6934
     23 C8         -0.7736    1.3475   -2.7932 C.ar      1 ACP         0.5422
     24 N7         -0.6356    0.8373   -3.9991 N.2       1 ACP        -0.5596
     25 C5          0.7095    0.5981   -4.1281 C.ar      1 ACP        -0.2259
     26 C6          1.4733    0.0704   -5.1643 C.ar      1 ACP         0.7526
     27 N6          0.8693   -0.3355   -6.3666 N.pl3     1 ACP        -0.9660
     28 N1          2.8130   -0.0482   -5.0009 N.ar      1 ACP        -0.8027
     29 C2          3.3380    0.3602   -3.8204 C.ar      1 ACP         0.6758
     30 N3          2.7052    0.8841   -2.7480 N.ar      1 ACP        -0.7221
     31 C4          1.3867    0.9726   -2.9785 C.ar      1 ACP         0.5858
     32 HOG2        9.7100   -1.3714   -0.4360 H         1 ACP         0.4705
     33 HOG3        8.1706   -2.2871   -3.0074 H         1 ACP         0.4705
     34 H3B1        9.7339    0.8685   -1.8408 H         1 ACP         0.1189
     35 H3B2        8.2605    1.5258   -2.5463 H         1 ACP         0.1189
     36 HOA2        5.6689    3.7896    2.6148 H         1 ACP         0.4679
     37 H5'1        4.3175    1.3541   -0.6468 H         1 ACP         0.0587
     38 H5'2        4.6079    1.5730    1.0985 H         1 ACP         0.0587
     39 H4'         2.3752    2.7029    1.3156 H         1 ACP         0.0938
     40 H3'         2.4336   -0.1217   -0.0016 H         1 ACP         0.0597
     41 HO3'        1.7160   -0.6716    2.0397 H         1 ACP         0.4554
     42 H2'         0.0316    0.0155   -0.0339 H         1 ACP         0.0710
     43 HO2'       -0.1608    0.7921    2.1351 H         1 ACP         0.4360
     44 H1'        -0.1474    2.7798   -0.6651 H         1 ACP         0.1247
     45 H8         -1.7070    1.6599   -2.3451 H         1 ACP         0.0875
     46 HN61       -0.1277   -0.2866   -6.4583 H         1 ACP         0.4433
     47 HN62        1.4308   -0.7566   -7.0823 H         1 ACP         0.4433
     48 H2          4.4130    0.2505   -3.7241 H         1 ACP         0.0459
@<TRIPOS>BOND
     1    1    2 2
     2    1    3 1
     3    1    4 1
     4    1    8 1
     5    3   32 1
     6    4   33 1
     7    5    6 2
     8    5    7 1
     9    5    8 1
    10    5   12 1
    11    8   34 1
    12    8   35 1
    13    9   10 2
    14    9   11 1
    15    9   12 1
    16    9   13 1
    17   11   36 1
    18   13   14 1
    19   14   15 1
    20   14   37 1
    21   14   38 1
    22   15   16 1
    23   15   17 1
    24   15   39 1
    25   16   21 1
    26   17   18 1
    27   17   19 1
    28   17   40 1
    29   18   41 1
    30   19   20 1
    31   19   21 1
    32   19   42 1
    33   20   43 1
    34   21   22 1
    35   21   44 1
    36   22   23 ar
    37   22   31 ar
    38   23   24 ar
    39   23   45 1
    40   24   25 ar
    41   25   26 ar
    42   25   31 ar
    43   26   27 1
    44   26   28 ar
    45   27   46 1
    46   27   47 1
    47   28   29 ar
    48   29   30 ar
    49   29   48 1
    50   30   31 ar
@<TRIPOS>SUBSTRUCTURE
     1 ACP         1 GROUP 0 A     ****
@<TRIPOS>MOLECULE
[[5-(6-aminopurin-9-yl)-3,4-dihydroxy-tetrahydrofuran-2-yl]methoxy-hydroxy-phosphoryl]oxy-(phosphonomethyl)phosphinate
   48    50     1     0     0
SMALL
USER_CHARGES

@<TRIPOS>ATOM
      1 PG         -1.6476    7.4216   -0.0477 P.3       1 ACP         1.6292
      2 O1G        -2.1307    6.0555   -0.4322 O.2       1 ACP        -0.8674
      3 O2G        -0.9339    8.2643   -1.2269 O.3       1 ACP        -0.7977
      4 O3G        -2.7835    8.4282    0.5058 O.3       1 ACP        -0.7977
      5 PB         -0.7559    6.7452    2.9574 P.3       1 ACP         1.4910
      6 O1B        -1.9145    7.5276    3.5311 O.co2     1 ACP        -0.8292
      7 O2B         0.5707    6.6298    3.6716 O.co2     1 ACP        -0.8292
      8 C3B        -0.4140    7.4294    1.2732 C.3       1 ACP        -0.6453
      9 PA         -1.9391    4.0774    3.3757 P.3       1 ACP         1.7996
     10 O1A        -3.2310    4.4475    4.0450 O.2       1 ACP        -0.8588
     11 O2A        -0.7613    3.6379    4.3940 O.3       1 ACP        -0.8037
     12 O3A        -1.2682    5.2646    2.5062 O.3       1 ACP        -0.7988
     13 O5'        -2.0397    2.8622    2.3121 O.3       1 ACP        -0.5960
     14 C5'        -0.8811    2.4285    1.6206 C.3       1 ACP         0.1917
     15 C4'        -0.1994    1.3333    2.4288 C.3       1 ACP         0.0908
     16 O4'        -1.1285    0.2356    2.5840 O.3       1 ACP        -0.4111
     17 C3'         1.0324    0.7610    1.7344 C.3       1 ACP         0.0927
     18 O3'         1.9175    0.2377    2.7247 O.3       1 ACP        -0.6127
     19 C2'         0.4468   -0.3802    0.9263 C.3       1 ACP         0.1095
     20 O2'         1.3993   -1.3703    0.5961 O.3       1 ACP        -0.5953
     21 C1'        -0.6159   -0.9100    1.8769 C.3       1 ACP         0.4273
     22 N9         -1.7127   -1.6108    1.2130 N.pl3     1 ACP        -0.6934
     23 C8         -2.8641   -1.0399    0.7392 C.ar      1 ACP         0.5422
     24 N7         -3.6659   -1.9257    0.1858 N.2       1 ACP        -0.5596
     25 C5         -3.0053   -3.1223    0.3069 C.ar      1 ACP        -0.2259
     26 C6         -3.3321   -4.4178   -0.0813 C.ar      1 ACP         0.7526
     27 N6         -4.5476   -4.6866   -0.7335 N.pl3     1 ACP        -0.9660
     28 N1         -2.4608   -5.4225    0.1773 N.ar      1 ACP        -0.8027
     29 C2         -1.3053   -5.1020    0.8081 C.ar      1 ACP         0.6758
     30 N3         -0.8788   -3.8921    1.2315 N.ar      1 ACP        -0.7221
     31 C4         -1.7870   -2.9477    0.9438 C.ar      1 ACP         0.5858
     32 HOG2       -1.4444    8.4728   -2.0381 H         1 ACP         0.4705
     33 HOG3       -2.5249    9.3361    0.7727 H         1 ACP         0.4705
     34 H3B1        0.4605    6.8854    0.8989 H         1 ACP         0.1189
     35 H3B2       -0.1013    8.4685    1.4270 H         1 ACP         0.1189
     36 HOA2       -0.4545    4.2797    5.0694 H         1 ACP         0.4679
     37 H5'1       -1.1760    2.0499    0.6365 H         1 ACP         0.0587
     38 H5'2       -0.2073    3.2811    1.4873 H         1 ACP         0.0587
     39 H4'         0.0402    1.7079    3.4342 H         1 ACP         0.0938
     40 H3'         1.5907    1.4859    1.1353 H         1 ACP         0.0597
     41 HO3'        2.6839   -0.1150    2.2479 H         1 ACP         0.4554
     42 H2'        -0.0017    0.0018    0.0005 H         1 ACP         0.0710
     43 HO2'        2.0953   -0.9375    0.0709 H         1 ACP         0.4360
     44 H1'        -0.1998   -1.6319    2.6178 H         1 ACP         0.1247
     45 H8         -3.0609    0.0200    0.8250 H         1 ACP         0.0875
     46 HN61       -5.2046   -3.9433   -0.8775 H         1 ACP         0.4433
     47 HN62       -4.7849   -5.6332   -0.9625 H         1 ACP         0.4433
     48 H2         -0.6318   -5.9307    0.9993 H         1 ACP         0.0459
@<TRIPOS>BOND
     1    1    2 2
     2    1    3 1
     3    1    4 1
     4    1    8 1
     5    3   32 1
     6    4   33 1
     7    5    6 2
     8    5    7 1
     9    5    8 1
    10    5   12 1
    11    8   34 1
    12    8   35 1
    13    9   10 2
    14    9   11 1
    15    9   12 1
    16    9   13 1
    17   11   36 1
    18   13   14 1
    19   14   15 1
    20   14   37 1
    21   14   38 1
    22   15   16 1
    23   15   17 1
    24   15   39 1
    25   16   21 1
    26   17   18 1
    27   17   19 1
    28   17   40 1
    29   18   41 1
    30   19   20 1
    31   19   21 1
    32   19   42 1
    33   20   43 1
    34   21   22 1
    35   21   44 1
    36   22   23 ar
    37   22   31 ar
    38   23   24 ar
    39   23   45 1
    40   24   25 ar
    41   25   26 ar
    42   25   31 ar
    43   26   27 1
    44   26   28 ar
    45   27   46 1
    46   27   47 1
    47   28   29 ar
    48   29   30 ar
    49   29   48 1
    50   30   31 ar
@<TRIPOS>SUBSTRUCTURE
     1 ACP         1 GROUP 0 A     ****
@<TRIPOS>MOLECULE
[[5-(6-aminopurin-9-yl)-3,4-dihydroxy-tetrahydrofuran-2-yl]methoxy-hydroxy-phosphoryl]oxy-(phosphonomethyl)phosphinate
   48    50     1     0     0
SMALL
USER_CHARGES

@<TRIPOS>ATOM
      1 PG         -4.3459    3.5186   -3.1410 P.3       1 ACP         1.6292
      2 O1G        -5.8348    3.6778   -3.2138 O.2       1 ACP        -0.8674
      3 O2G        -3.6136    3.1777   -4.5402 O.3       1 ACP        -0.7977
      4 O3G        -3.5372    4.8046   -2.5916 O.3       1 ACP        -0.7977
      5 PB         -4.1884    2.1572   -0.2419 P.3       1 ACP         1.4910
      6 O1B        -3.5634    0.9062    0.3306 O.co2     1 ACP        -0.8292
      7 O2B        -5.6624    2.4587   -0.1008 O.co2     1 ACP        -0.8292
      8 C3B        -3.7929    2.1892   -2.0486 C.3       1 ACP        -0.6453
      9 PA         -2.9682    4.0282    1.6825 P.3       1 ACP         1.7996
     10 O1A        -4.1668    4.4027    2.5051 O.2       1 ACP        -0.8588
     11 O2A        -1.9512    5.2515    1.3883 O.3       1 ACP        -0.8037
     12 O3A        -3.3154    3.4582    0.2093 O.3       1 ACP        -0.7988
     13 O5'        -2.0397    2.8622    2.3121 O.3       1 ACP        -0.5960
     14 C5'        -0.8811    2.4285    1.6206 C.3       1 ACP         0.1917
     15 C4'        -0.1994    1.3333    2.4288 C.3       1 ACP         0.0908
     16 O4'        -1.1285    0.2356    2.5840 O.3       1 ACP        -0.4111
     17 C3'         1.0324    0.7610    1.7344 C.3       1 ACP         0.0927
     18 O3'         1.9175    0.2377    2.7247 O.3       1 ACP        -0.6127
     19 C2'         0.4468   -0.3802    0.9263 C.3       1 ACP         0.1095
     20 O2'         1.3993   -1.3703    0.5961 O.3       1 ACP        -0.5953
     21 C1'        -0.6159   -0.9100    1.8769 C.3       1 ACP         0.4273
     22 N9         -1.7127   -1.6108    1.2130 N.pl3     1 ACP        -0.6934
     23 C8         -1.6230   -2.3308    0.0513 C.ar      1 ACP         0.5422
     24 N7         -2.7800   -2.8517   -0.3004 N.2       1 ACP        -0.5596
     25 C5         -3.6574   -2.4511    0.6758 C.ar      1 ACP        -0.2259
     26 C6         -5.0170   -2.6775    0.8654 C.ar      1 ACP         0.7526
     27 N6         -5.7504   -3.4510   -0.0504 N.pl3     1 ACP        -0.9660
     28 N1         -5.6292   -2.1415    1.9486 N.ar      1 ACP        -0.8027
     29 C2         -4.8703   -1.4055    2.7961 C.ar      1 ACP         0.6758
     30 N3         -3.5527   -1.1170    2.7199 N.ar      1 ACP        -0.7221
     31 C4         -3.0124   -1.6774    1.6275 C.ar      1 ACP         0.5858
     32 HOG2       -3.6933    3.8110   -5.2851 H         1 ACP         0.4705
     33 HOG3       -2.5598    4.7576   -2.5224 H         1 ACP         0.4705
     34 H3B1       -4.1851    1.2520   -2.4594 H         1 ACP         0.1189
     35 H3B2       -2.7006    2.1360   -2.1196 H         1 ACP         0.1189
     36 HOA2       -1.5318    5.7121    2.1460 H         1 ACP         0.4679
     37 H5'1       -1.1760    2.0499    0.6365 H         1 ACP         0.0587
     38 H5'2       -0.2073    3.2811    1.4873 H         1 ACP         0.0587
     39 H4'         0.0402    1.7079    3.4342 H         1 ACP         0.0938
     40 H3'         1.5907    1.4859    1.1353 H         1 ACP         0.0597
     41 HO3'        2.6839   -0.1150    2.2479 H         1 ACP         0.4554
     42 H2'        -0.0017    0.0018    0.0005 H         1 ACP         0.0710
     43 HO2'        2.0953   -0.9375    0.0709 H         1 ACP         0.4360
     44 H1'        -0.1998   -1.6319    2.6178 H         1 ACP         0.1247
     45 H8         -0.6932   -2.4401   -0.4900 H         1 ACP         0.0875
     46 HN61       -5.2972   -3.8032   -0.8723 H         1 ACP         0.4433
     47 HN62       -6.7381   -3.5629    0.0791 H         1 ACP         0.4433
     48 H2         -5.3929   -0.9917    3.6520 H         1 ACP         0.0459
@<TRIPOS>BOND
     1    1    2 2
     2    1    3 1
     3    1    4 1
     4    1    8 1
     5    3   32 1
     6    4   33 1
     7    5    6 2
     8    5    7 1
     9    5    8 1
    10    5   12 1
    11    8   34 1
    12    8   35 1
    13    9   10 2
    14    9   11 1
    15    9   12 1
    16    9   13 1
    17   11   36 1
    18   13   14 1
    19   14   15 1
    20   14   37 1
    21   14   38 1
    22   15   16 1
    23   15   17 1
    24   15   39 1
    25   16   21 1
    26   17   18 1
    27   17   19 1
    28   17   40 1
    29   18   41 1
    30   19   20 1
    31   19   21 1
    32   19   42 1
    33   20   43 1
    34   21   22 1
    35   21   44 1
    36   22   23 ar
    37   22   31 ar
    38   23   24 ar
    39   23   45 1
    40   24   25 ar
    41   25   26 ar
    42   25   31 ar
    43   26   27 1
    44   26   28 ar
    45   27   46 1
    46   27   47 1
    47   28   29 ar
    48   29   30 ar
    49   29   48 1
    50   30   31 ar
@<TRIPOS>SUBSTRUCTURE
     1 ACP         1 GROUP 0 A     ****
@<TRIPOS>MOLECULE
[[5-(6-aminopurin-9-yl)-3,4-dihydroxy-tetrahydrofuran-2-yl]methoxy-hydroxy-phosphoryl]oxy-(phosphonomethyl)phosphinate
   48    50     1     0     0
SMALL
USER_CHARGES

@<TRIPOS>ATOM
      1 PG          6.3123   -0.3838   -3.4721 P.3       1 ACP         1.6292
      2 O1G         7.1662   -1.4433   -2.8430 O.2       1 ACP        -0.8674
      3 O2G         5.7521   -0.7275   -4.9480 O.3       1 ACP        -0.7977
      4 O3G         4.9840    0.0177   -2.6448 O.3       1 ACP        -0.7977
      5 PB          7.8432    2.1753   -2.2932 P.3       1 ACP         1.4910
      6 O1B         8.4548    3.4294   -2.8736 O.co2     1 ACP        -0.8292
      7 O2B         8.6345    1.2155   -1.4352 O.co2     1 ACP        -0.8292
      8 C3B         7.1462    1.2028   -3.7038 C.3       1 ACP        -0.6453
      9 PA          6.1389    3.5429   -0.3138 P.3       1 ACP         1.7996
     10 O1A         6.5226    4.9737   -0.5571 O.2       1 ACP        -0.8588
     11 O2A         6.9057    2.8480    0.9299 O.3       1 ACP        -0.8037
     12 O3A         6.4393    2.5464   -1.5517 O.3       1 ACP        -0.7988
     13 O5'         4.5673    3.2930   -0.0211 O.3       1 ACP        -0.5960
     14 C5'         4.0922    1.9801    0.2227 C.3       1 ACP         0.1917
     15 C4'         2.5944    2.0310    0.4653 C.3       1 ACP         0.0908
     16 O4'         1.9327    2.5740   -0.6889 O.3       1 ACP        -0.4111
     17 C3'         1.9685    0.6634    0.6767 C.3       1 ACP         0.0927
     18 O3'         2.1425    0.1975    1.9977 O.3       1 ACP        -0.6127
     19 C2'         0.5176    0.9128    0.3099 C.3       1 ACP         0.1095
     20 O2'        -0.2103    1.4454    1.4152 O.3       1 ACP        -0.5953
     21 C1'         0.6219    1.9765   -0.7844 C.3       1 ACP         0.4273
     22 N9          0.4237    1.4496   -2.1357 N.pl3     1 ACP        -0.6934
     23 C8          1.1856    0.4888   -2.7458 C.ar      1 ACP         0.5422
     24 N7          0.7615    0.2176   -3.9625 N.2       1 ACP        -0.5596
     25 C5         -0.3220    1.0389   -4.1485 C.ar      1 ACP        -0.2259
     26 C6         -1.1900    1.2182   -5.2210 C.ar      1 ACP         0.7526
     27 N6         -1.0341    0.4739   -6.4028 N.pl3     1 ACP        -0.9660
     28 N1         -2.1929    2.1227   -5.1127 N.ar      1 ACP        -0.8027
     29 C2         -2.2930    2.8097   -3.9492 C.ar      1 ACP         0.6758
     30 N3         -1.5176    2.7252   -2.8462 N.ar      1 ACP        -0.7221
     31 C4         -0.5489    1.8142   -3.0226 C.ar      1 ACP         0.5858
     32 HOG2        5.1821   -1.5167   -5.0682 H         1 ACP         0.4705
     33 HOG3        4.3872    0.7059   -3.0088 H         1 ACP         0.4705
     34 H3B1        7.9814    1.0290   -4.3917 H         1 ACP         0.1189
     35 H3B2        6.4458    1.8726   -4.2155 H         1 ACP         0.1189
     36 HOA2        6.8017    3.2332    1.8260 H         1 ACP         0.4679
     37 H5'1        4.3175    1.3541   -0.6468 H         1 ACP         0.0587
     38 H5'2        4.6079    1.5730    1.0985 H         1 ACP         0.0587
     39 H4'         2.3752    2.7029    1.3156 H         1 ACP         0.0938
     40 H3'         2.4336   -0.1217   -0.0016 H         1 ACP         0.0597
     41 HO3'        1.7160   -0.6716    2.0397 H         1 ACP         0.4554
     42 H2'         0.0316    0.0155   -0.0339 H         1 ACP         0.0710
     43 HO2'       -0.1608    0.7921    2.1351 H         1 ACP         0.4360
     44 H1'        -0.1474    2.7798   -0.6651 H         1 ACP         0.1247
     45 H8          2.0314    0.0256   -2.2564 H         1 ACP         0.0875
     46 HN61       -0.2609   -0.1582   -6.4888 H         1 ACP         0.4433
     47 HN62       -1.6409    0.6517   -7.1807 H         1 ACP         0.4433
     48 H2         -3.1067    3.5253   -3.8975 H         1 ACP         0.0459
@<TRIPOS>BOND
     1    1    2 2
     2    1    3 1
     3    1    4 1
     4    1    8 1
     5    3   32 1
     6    4   33 1
     7    5    6 2
     8    5    7 1
     9    5    8 1
    10    5   12 1
    11    8   34 1
    12    8   35 1
    13    9   10 2
    14    9   11 1
    15    9   12 1
    16    9   13 1
    17   11   36 1
    18   13   14 1
    19   14   15 1
    20   14   37 1
    21   14   38 1
    22   15   16 1
    23   15   17 1
    24   15   39 1
    25   16   21 1
    26   17   18 1
    27   17   19 1
    28   17   40 1
    29   18   41 1
    30   19   20 1
    31   19   21 1
    32   19   42 1
    33   20   43 1
    34   21   22 1
    35   21   44 1
    36   22   23 ar
    37   22   31 ar
    38   23   24 ar
    39   23   45 1
    40   24   25 ar
    41   25   26 ar
    42   25   31 ar
    43   26   27 1
    44   26   28 ar
    45   27   46 1
    46   27   47 1
    47   28   29 ar
    48   29   30 ar
    49   29   48 1
    50   30   31 ar
@<TRIPOS>SUBSTRUCTURE
     1 ACP         1 GROUP 0 A     ****
@<TRIPOS>MOLECULE
[[5-(6-aminopurin-9-yl)-3,4-dihydroxy-tetrahydrofuran-2-yl]methoxy-hydroxy-phosphoryl]oxy-(phosphonomethyl)phosphinate
   48    50     1     0     0
SMALL
USER_CHARGES

@<TRIPOS>ATOM
      1 PG          0.4190    8.2695    1.8627 P.3       1 ACP         1.6292
      2 O1G         1.6720    8.8961    1.3290 O.2       1 ACP        -0.8674
      3 O2G         0.5714    7.5068    3.2787 O.3       1 ACP        -0.7977
      4 O3G        -0.8136    9.2846    2.1078 O.3       1 ACP        -0.7977
      5 PB         -1.8430    6.0887    1.2221 P.3       1 ACP         1.4910
      6 O1B        -2.1263    5.1276    0.0908 O.co2     1 ACP        -0.8292
      7 O2B        -2.8558    7.1105    1.6841 O.co2     1 ACP        -0.8292
      8 C3B        -0.2976    7.0069    0.7862 C.3       1 ACP        -0.6453
      9 PA         -1.9391    4.0774    3.3757 P.3       1 ACP         1.7996
     10 O1A        -3.2310    4.4475    4.0450 O.2       1 ACP        -0.8588
     11 O2A        -0.7613    3.6379    4.3940 O.3       1 ACP        -0.8037
     12 O3A        -1.2682    5.2646    2.5062 O.3       1 ACP        -0.7988
     13 O5'        -2.0397    2.8622    2.3121 O.3       1 ACP        -0.5960
     14 C5'        -0.8811    2.4285    1.6206 C.3       1 ACP         0.1917
     15 C4'        -0.1994    1.3333    2.4288 C.3       1 ACP         0.0908
     16 O4'        -1.1285    0.2356    2.5840 O.3       1 ACP        -0.4111
     17 C3'         1.0324    0.7610    1.7344 C.3       1 ACP         0.0927
     18 O3'         1.9175    0.2377    2.7247 O.3       1 ACP        -0.6127
     19 C2'         0.4468   -0.3802    0.9263 C.3       1 ACP         0.1095
     20 O2'         1.3993   -1.3703    0.5961 O.3       1 ACP        -0.5953
     21 C1'        -0.6159   -0.9100    1.8769 C.3       1 ACP         0.4273
     22 N9         -1.7127   -1.6108    1.2130 N.pl3     1 ACP        -0.6934
     23 C8         -2.8641   -1.0399    0.7392 C.ar      1 ACP         0.5422
     24 N7         -3.6659   -1.9257    0.1858 N.2       1 ACP        -0.5596
     25 C5         -3.0053   -3.1223    0.3069 C.ar      1 ACP        -0.2259
     26 C6         -3.3321   -4.4178   -0.0813 C.ar      1 ACP         0.7526
     27 N6         -4.5476   -4.6866   -0.7335 N.pl3     1 ACP        -0.9660
     28 N1         -2.4608   -5.4225    0.1773 N.ar      1 ACP        -0.8027
     29 C2         -1.3053   -5.1020    0.8081 C.ar      1 ACP         0.6758
     30 N3         -0.8788   -3.8921    1.2315 N.ar      1 ACP        -0.7221
     31 C4         -1.7870   -2.9477    0.9438 C.ar      1 ACP         0.5858
     32 HOG2       -0.2169    7.0782    3.6750 H         1 ACP         0.4705
     33 HOG3       -0.6986   10.0290    2.7362 H         1 ACP         0.4705
     34 H3B1       -0.4929    7.4831   -0.1813 H         1 ACP         0.1189
     35 H3B2        0.4699    6.2432    0.6164 H         1 ACP         0.1189
     36 HOA2       -0.4545    4.2797    5.0694 H         1 ACP         0.4679
     37 H5'1       -1.1760    2.0499    0.6365 H         1 ACP         0.0587
     38 H5'2       -0.2073    3.2811    1.4873 H         1 ACP         0.0587
     39 H4'         0.0402    1.7079    3.4342 H         1 ACP         0.0938
     40 H3'         1.5907    1.4859    1.1353 H         1 ACP         0.0597
     41 HO3'        2.6839   -0.1150    2.2479 H         1 ACP         0.4554
     42 H2'        -0.0017    0.0018    0.0005 H         1 ACP         0.0710
     43 HO2'        2.0953   -0.9375    0.0709 H         1 ACP         0.4360
     44 H1'        -0.1998   -1.6319    2.6178 H         1 ACP         0.1247
     45 H8         -3.0609    0.0200    0.8250 H         1 ACP         0.0875
     46 HN61       -5.2046   -3.9433   -0.8775 H         1 ACP         0.4433
     47 HN62       -4.7849   -5.6332   -0.9625 H         1 ACP         0.4433
     48 H2         -0.6318   -5.9307    0.9993 H         1 ACP         0.0459
@<TRIPOS>BOND
     1    1    2 2
     2    1    3 1
     3    1    4 1
     4    1    8 1
     5    3   32 1
     6    4   33 1
     7    5    6 2
     8    5    7 1
     9    5    8 1
    10    5   12 1
    11    8   34 1
    12    8   35 1
    13    9   10 2
    14    9   11 1
    15    9   12 1
    16    9   13 1
    17   11   36 1
    18   13   14 1
    19   14   15 1
    20   14   37 1
    21   14   38 1
    22   15   16 1
    23   15   17 1
    24   15   39 1
    25   16   21 1
    26   17   18 1
    27   17   19 1
    28   17   40 1
    29   18   41 1
    30   19   20 1
    31   19   21 1
    32   19   42 1
    33   20   43 1
    34   21   22 1
    35   21   44 1
    36   22   23 ar
    37   22   31 ar
    38   23   24 ar
    39   23   45 1
    40   24   25 ar
    41   25   26 ar
    42   25   31 ar
    43   26   27 1
    44   26   28 ar
    45   27   46 1
    46   27   47 1
    47   28   29 ar
    48   29   30 ar
    49   29   48 1
    50   30   31 ar
@<TRIPOS>SUBSTRUCTURE
     1 ACP         1 GROUP 0 A     ****
@<TRIPOS>MOLECULE
[[5-(6-aminopurin-9-yl)-3,4-dihydroxy-tetrahydrofuran-2-yl]methoxy-hydroxy-phosphoryl]oxy-(phosphonomethyl)phosphinate
   48    50     1     0     0
SMALL
USER_CHARGES

@<TRIPOS>ATOM
      1 PG          8.0177    1.3504   -3.3123 P.3       1 ACP         1.6292
      2 O1G         6.5487    1.6470   -3.3530 O.2       1 ACP        -0.8674
      3 O2G         8.4885    0.0519   -4.1502 O.3       1 ACP        -0.7977
      4 O3G         8.9780    2.5273   -3.8625 O.3       1 ACP        -0.7977
      5 PB          8.5731    2.2823   -0.2947 P.3       1 ACP         1.4910
      6 O1B         9.3296    3.5056   -0.7580 O.co2     1 ACP        -0.8292
      7 O2B         8.9090    1.5672    0.9935 O.co2     1 ACP        -0.8292
      8 C3B         8.6664    1.0330   -1.6555 C.3       1 ACP        -0.6453
      9 PA          6.0788    3.6958    0.3928 P.3       1 ACP         1.7996
     10 O1A         6.4678    5.1128    0.0855 O.2       1 ACP        -0.8588
     11 O2A         6.1996    3.2939    1.9553 O.3       1 ACP        -0.8037
     12 O3A         6.9706    2.5756   -0.3591 O.3       1 ACP        -0.7988
     13 O5'         4.5673    3.2930   -0.0211 O.3       1 ACP        -0.5960
     14 C5'         4.0922    1.9801    0.2227 C.3       1 ACP         0.1917
     15 C4'         2.5944    2.0310    0.4653 C.3       1 ACP         0.0908
     16 O4'         1.9327    2.5740   -0.6889 O.3       1 ACP        -0.4111
     17 C3'         1.9685    0.6634    0.6767 C.3       1 ACP         0.0927
     18 O3'         2.1425    0.1975    1.9977 O.3       1 ACP        -0.6127
     19 C2'         0.5176    0.9128    0.3099 C.3       1 ACP         0.1095
     20 O2'        -0.2103    1.4454    1.4152 O.3       1 ACP        -0.5953
     21 C1'         0.6219    1.9765   -0.7844 C.3       1 ACP         0.4273
     22 N9          0.4237    1.4496   -2.1357 N.pl3     1 ACP        -0.6934
     23 C8          1.4026    0.9717   -2.9660 C.ar      1 ACP         0.5422
     24 N7          0.9183    0.5619   -4.1197 N.2       1 ACP        -0.5596
     25 C5         -0.4330    0.7845   -4.0331 C.ar      1 ACP        -0.2259
     26 C6         -1.4794    0.5615   -4.9225 C.ar      1 ACP         0.7526
     27 N6         -1.2378    0.0044   -6.1899 N.pl3     1 ACP        -0.9660
     28 N1         -2.7406    0.8885   -4.5512 N.ar      1 ACP        -0.8027
     29 C2         -2.9113    1.4216   -3.3172 C.ar      1 ACP         0.6758
     30 N3         -1.9824    1.6843   -2.3721 N.ar      1 ACP        -0.7221
     31 C4         -0.7613    1.3370   -2.8054 C.ar      1 ACP         0.5858
     32 HOG2        8.3234    0.0242   -5.1167 H         1 ACP         0.4705
     33 HOG3        9.9491    2.3886   -3.8598 H         1 ACP         0.4705
     34 H3B1        8.1590    0.1379   -1.2781 H         1 ACP         0.1189
     35 H3B2        9.7273    0.7781   -1.7594 H         1 ACP         0.1189
     36 HOA2        5.6689    3.7896    2.6148 H         1 ACP         0.4679
     37 H5'1        4.3175    1.3541   -0.6468 H         1 ACP         0.0587
     38 H5'2        4.6079    1.5730    1.0985 H         1 ACP         0.0587
     39 H4'         2.3752    2.7029    1.3156 H         1 ACP         0.0938
     40 H3'         2.4336   -0.1217   -0.0016 H         1 ACP         0.0597
     41 HO3'        1.7160   -0.6716    2.0397 H         1 ACP         0.4554
     42 H2'         0.0316    0.0155   -0.0339 H         1 ACP         0.0710
     43 HO2'       -0.1608    0.7921    2.1351 H         1 ACP         0.4360
     44 H1'        -0.1474    2.7798   -0.6651 H         1 ACP         0.1247
     45 H8          2.4442    0.9470   -2.6763 H         1 ACP         0.0875
     46 HN61       -0.2955   -0.1901   -6.4713 H         1 ACP         0.4433
     47 HN62       -1.9987   -0.1045   -6.8334 H         1 ACP         0.4433
     48 H2         -3.9335    1.6716   -3.0534 H         1 ACP         0.0459
@<TRIPOS>BOND
     1    1    2 2
     2    1    3 1
     3    1    4 1
     4    1    8 1
     5    3   32 1
     6    4   33 1
     7    5    6 2
     8    5    7 1
     9    5    8 1
    10    5   12 1
    11    8   34 1
    12    8   35 1
    13    9   10 2
    14    9   11 1
    15    9   12 1
    16    9   13 1
    17   11   36 1
    18   13   14 1
    19   14   15 1
    20   14   37 1
    21   14   38 1
    22   15   16 1
    23   15   17 1
    24   15   39 1
    25   16   21 1
    26   17   18 1
    27   17   19 1
    28   17   40 1
    29   18   41 1
    30   19   20 1
    31   19   21 1
    32   19   42 1
    33   20   43 1
    34   21   22 1
    35   21   44 1
    36   22   23 ar
    37   22   31 ar
    38   23   24 ar
    39   23   45 1
    40   24   25 ar
    41   25   26 ar
    42   25   31 ar
    43   26   27 1
    44   26   28 ar
    45   27   46 1
    46   27   47 1
    47   28   29 ar
    48   29   30 ar
    49   29   48 1
    50   30   31 ar
@<TRIPOS>SUBSTRUCTURE
     1 ACP         1 GROUP 0 A     ****
@<TRIPOS>MOLECULE
[[5-(6-aminopurin-9-yl)-3,4-dihydroxy-tetrahydrofuran-2-yl]methoxy-hydroxy-phosphoryl]oxy-(phosphonomethyl)phosphinate
   48    50     1     0     0
SMALL
USER_CHARGES

@<TRIPOS>ATOM
      1 PG          6.1589    0.4274   -3.4191 P.3       1 ACP         1.6292
      2 O1G         6.6207   -0.0718   -2.0831 O.2       1 ACP        -0.8674
      3 O2G         6.7605   -0.3532   -4.6992 O.3       1 ACP        -0.7977
      4 O3G         4.5623    0.3827   -3.6617 O.3       1 ACP        -0.7977
      5 PB          5.9795    3.5445   -2.6880 P.3       1 ACP         1.4910
      6 O1B         4.4689    3.5175   -2.7220 O.co2     1 ACP        -0.8292
      7 O2B         6.7722    4.7729   -3.0703 O.co2     1 ACP        -0.8292
      8 C3B         6.5759    2.1541   -3.7522 C.3       1 ACP        -0.6453
      9 PA          6.2292    3.5136    0.2496 P.3       1 ACP         1.7996
     10 O1A         6.6927    4.9186    0.5045 O.2       1 ACP        -0.8588
     11 O2A         6.9320    2.3979    1.1869 O.3       1 ACP        -0.8037
     12 O3A         6.5026    2.9775   -1.2516 O.3       1 ACP        -0.7988
     13 O5'         4.6408    3.2691    0.4376 O.3       1 ACP        -0.5960
     14 C5'         4.0922    1.9801    0.2227 C.3       1 ACP         0.1917
     15 C4'         2.5944    2.0310    0.4653 C.3       1 ACP         0.0908
     16 O4'         1.9327    2.5740   -0.6889 O.3       1 ACP        -0.4111
     17 C3'         1.9685    0.6634    0.6767 C.3       1 ACP         0.0927
     18 O3'         2.1425    0.1975    1.9977 O.3       1 ACP        -0.6127
     19 C2'         0.5176    0.9128    0.3099 C.3       1 ACP         0.1095
     20 O2'        -0.2103    1.4454    1.4152 O.3       1 ACP        -0.5953
     21 C1'         0.6219    1.9765   -0.7844 C.3       1 ACP         0.4273
     22 N9          0.4237    1.4496   -2.1357 N.pl3     1 ACP        -0.6934
     23 C8          1.3280    1.5049   -3.1629 C.ar      1 ACP         0.5422
     24 N7          0.8669    0.9430   -4.2608 N.2       1 ACP        -0.5596
     25 C5         -0.3909    0.5052   -3.9303 C.ar      1 ACP        -0.2259
     26 C6         -1.3732   -0.1610   -4.6563 C.ar      1 ACP         0.7526
     27 N6         -1.1592   -0.5106   -6.0006 N.pl3     1 ACP        -0.9660
     28 N1         -2.5443   -0.4711   -4.0498 N.ar      1 ACP        -0.8027
     29 C2         -2.6923   -0.1087   -2.7527 C.ar      1 ACP         0.6758
     30 N3         -1.8193    0.5362   -1.9484 N.ar      1 ACP        -0.7221
     31 C4         -0.6860    0.8110   -2.6113 C.ar      1 ACP         0.5858
     32 HOG2        6.5884   -1.3143   -4.7940 H         1 ACP         0.4705
     33 HOG3        4.2027    0.6972   -4.5185 H         1 ACP         0.4705
     34 H3B1        7.6694    2.2253   -3.7560 H         1 ACP         0.1189
     35 H3B2        6.2379    2.3854   -4.7688 H         1 ACP         0.1189
     36 HOA2        6.8297    2.4637    2.1603 H         1 ACP         0.4679
     37 H5'1        4.3024    1.6721   -0.8067 H         1 ACP         0.0587
     38 H5'2        4.5673    1.2730    0.9105 H         1 ACP         0.0587
     39 H4'         2.3752    2.7029    1.3156 H         1 ACP         0.0938
     40 H3'         2.4336   -0.1217   -0.0016 H         1 ACP         0.0597
     41 HO3'        1.7160   -0.6716    2.0397 H         1 ACP         0.4554
     42 H2'         0.0316    0.0155   -0.0339 H         1 ACP         0.0710
     43 HO2'       -0.1608    0.7921    2.1351 H         1 ACP         0.4360
     44 H1'        -0.1474    2.7798   -0.6651 H         1 ACP         0.1247
     45 H8          2.3008    1.9640   -3.0518 H         1 ACP         0.0875
     46 HN61       -0.3077   -0.2348   -6.4521 H         1 ACP         0.4433
     47 HN62       -1.8970   -0.9480   -6.5194 H         1 ACP         0.4433
     48 H2         -3.6419   -0.3724   -2.2992 H         1 ACP         0.0459
@<TRIPOS>BOND
     1    1    2 2
     2    1    3 1
     3    1    4 1
     4    1    8 1
     5    3   32 1
     6    4   33 1
     7    5    6 2
     8    5    7 1
     9    5    8 1
    10    5   12 1
    11    8   34 1
    12    8   35 1
    13    9   10 2
    14    9   11 1
    15    9   12 1
    16    9   13 1
    17   11   36 1
    18   13   14 1
    19   14   15 1
    20   14   37 1
    21   14   38 1
    22   15   16 1
    23   15   17 1
    24   15   39 1
    25   16   21 1
    26   17   18 1
    27   17   19 1
    28   17   40 1
    29   18   41 1
    30   19   20 1
    31   19   21 1
    32   19   42 1
    33   20   43 1
    34   21   22 1
    35   21   44 1
    36   22   23 ar
    37   22   31 ar
    38   23   24 ar
    39   23   45 1
    40   24   25 ar
    41   25   26 ar
    42   25   31 ar
    43   26   27 1
    44   26   28 ar
    45   27   46 1
    46   27   47 1
    47   28   29 ar
    48   29   30 ar
    49   29   48 1
    50   30   31 ar
@<TRIPOS>SUBSTRUCTURE
     1 ACP         1 GROUP 0 A     ****
@<TRIPOS>MOLECULE
[[5-(6-aminopurin-9-yl)-3,4-dihydroxy-tetrahydrofuran-2-yl]methoxy-hydroxy-phosphoryl]oxy-(phosphonomethyl)phosphinate
   48    50     1     0     0
SMALL
USER_CHARGES

@<TRIPOS>ATOM
      1 PG          9.1001    5.2581    0.0160 P.3       1 ACP         1.6292
      2 O1G         9.4235    6.2714   -1.0404 O.2       1 ACP        -0.8674
      3 O2G         9.3109    3.7148   -0.4129 O.3       1 ACP        -0.7977
      4 O3G         9.9453    5.3912    1.3862 O.3       1 ACP        -0.7977
      5 PB          6.7407    4.1500    1.8836 P.3       1 ACP         1.4910
      6 O1B         5.2816    4.4838    2.0918 O.co2     1 ACP        -0.8292
      7 O2B         7.7376    4.1518    3.0192 O.co2     1 ACP        -0.8292
      8 C3B         7.3856    5.2999    0.5862 C.3       1 ACP        -0.6453
      9 PA          6.3383    1.2707    1.3934 P.3       1 ACP         1.7996
     10 O1A         6.8983    0.6915    2.6601 O.2       1 ACP        -0.8588
     11 O2A         6.6824    0.4202    0.0609 O.3       1 ACP        -0.8037
     12 O3A         6.8669    2.7585    1.0432 O.3       1 ACP        -0.7988
     13 O5'         4.7297    1.4430    1.3689 O.3       1 ACP        -0.5960
     14 C5'         4.0922    1.9801    0.2227 C.3       1 ACP         0.1917
     15 C4'         2.5944    2.0310    0.4653 C.3       1 ACP         0.0908
     16 O4'         1.9327    2.5740   -0.6889 O.3       1 ACP        -0.4111
     17 C3'         1.9685    0.6634    0.6767 C.3       1 ACP         0.0927
     18 O3'         2.1425    0.1975    1.9977 O.3       1 ACP        -0.6127
     19 C2'         0.5176    0.9128    0.3099 C.3       1 ACP         0.1095
     20 O2'        -0.2103    1.4454    1.4152 O.3       1 ACP        -0.5953
     21 C1'         0.6219    1.9765   -0.7844 C.3       1 ACP         0.4273
     22 N9          0.4237    1.4496   -2.1357 N.pl3     1 ACP        -0.6934
     23 C8          1.4026    0.9717   -2.9660 C.ar      1 ACP         0.5422
     24 N7          0.9183    0.5619   -4.1197 N.2       1 ACP        -0.5596
     25 C5         -0.4330    0.7845   -4.0331 C.ar      1 ACP        -0.2259
     26 C6         -1.4794    0.5615   -4.9225 C.ar      1 ACP         0.7526
     27 N6         -1.2378    0.0044   -6.1899 N.pl3     1 ACP        -0.9660
     28 N1         -2.7406    0.8885   -4.5512 N.ar      1 ACP        -0.8027
     29 C2         -2.9113    1.4216   -3.3172 C.ar      1 ACP         0.6758
     30 N3         -1.9824    1.6843   -2.3721 N.ar      1 ACP        -0.7221
     31 C4         -0.7613    1.3370   -2.8054 C.ar      1 ACP         0.5858
     32 HOG2        9.1145    3.0090    0.2393 H         1 ACP         0.4705
     33 HOG3       10.9227    5.3144    1.3513 H         1 ACP         0.4705
     34 H3B1        7.1962    6.3124    0.9600 H         1 ACP         0.1189
     35 H3B2        6.7425    5.1580   -0.2898 H         1 ACP         0.1189
     36 HOA2        6.3789   -0.5107    0.0009 H         1 ACP         0.4679
     37 H5'1        4.4838    2.9857    0.0374 H         1 ACP         0.0587
     38 H5'2        4.3186    1.3449   -0.6398 H         1 ACP         0.0587
     39 H4'         2.3752    2.7029    1.3156 H         1 ACP         0.0938
     40 H3'         2.4336   -0.1217   -0.0016 H         1 ACP         0.0597
     41 HO3'        3.0987    0.1465    2.1461 H         1 ACP         0.4554
     42 H2'         0.0316    0.0155   -0.0339 H         1 ACP         0.0710
     43 HO2'       -0.1608    0.7921    2.1351 H         1 ACP         0.4360
     44 H1'        -0.1474    2.7798   -0.6651 H         1 ACP         0.1247
     45 H8          2.4442    0.9470   -2.6763 H         1 ACP         0.0875
     46 HN61       -0.2955   -0.1901   -6.4713 H         1 ACP         0.4433
     47 HN62       -1.9987   -0.1045   -6.8334 H         1 ACP         0.4433
     48 H2         -3.9335    1.6716   -3.0534 H         1 ACP         0.0459
@<TRIPOS>BOND
     1    1    2 2
     2    1    3 1
     3    1    4 1
     4    1    8 1
     5    3   32 1
     6    4   33 1
     7    5    6 2
     8    5    7 1
     9    5    8 1
    10    5   12 1
    11    8   34 1
    12    8   35 1
    13    9   10 2
    14    9   11 1
    15    9   12 1
    16    9   13 1
    17   11   36 1
    18   13   14 1
    19   14   15 1
    20   14   37 1
    21   14   38 1
    22   15   16 1
    23   15   17 1
    24   15   39 1
    25   16   21 1
    26   17   18 1
    27   17   19 1
    28   17   40 1
    29   18   41 1
    30   19   20 1
    31   19   21 1
    32   19   42 1
    33   20   43 1
    34   21   22 1
    35   21   44 1
    36   22   23 ar
    37   22   31 ar
    38   23   24 ar
    39   23   45 1
    40   24   25 ar
    41   25   26 ar
    42   25   31 ar
    43   26   27 1
    44   26   28 ar
    45   27   46 1
    46   27   47 1
    47   28   29 ar
    48   29   30 ar
    49   29   48 1
    50   30   31 ar
@<TRIPOS>SUBSTRUCTURE
     1 ACP         1 GROUP 0 A     ****
@<TRIPOS>MOLECULE
[[5-(6-aminopurin-9-yl)-3,4-dihydroxy-tetrahydrofuran-2-yl]methoxy-hydroxy-phosphoryl]oxy-(phosphonomethyl)phosphinate
   48    50     1     0     0
SMALL
USER_CHARGES

@<TRIPOS>ATOM
      1 PG          1.5273   -1.1235   -4.5487 P.3       1 ACP         1.6292
      2 O1G         1.4718   -1.4766   -3.0928 O.2       1 ACP        -0.8674
      3 O2G         1.8702    0.4207   -4.8773 O.3       1 ACP        -0.7977
      4 O3G         2.6089   -1.9475   -5.4211 O.3       1 ACP        -0.7977
      5 PB         -1.5985   -0.5567   -4.9854 P.3       1 ACP         1.4910
      6 O1B        -1.9198   -0.9459   -3.5610 O.co2     1 ACP        -0.8292
      7 O2B        -2.5705   -0.7803   -6.1206 O.co2     1 ACP        -0.8292
      8 C3B        -0.0189   -1.4043   -5.4414 C.3       1 ACP        -0.6453
      9 PA         -1.7713    2.3561   -4.5629 P.3       1 ACP         1.7996
     10 O1A        -3.0473    2.6678   -5.2898 O.2       1 ACP        -0.8588
     11 O2A        -0.6107    3.4686   -4.7436 O.3       1 ACP        -0.8037
     12 O3A        -1.0553    0.9802   -5.0212 O.3       1 ACP        -0.7988
     13 O5'        -1.9198    2.1711   -2.9623 O.3       1 ACP        -0.5960
     14 C5'        -0.7794    1.8744   -2.1748 C.3       1 ACP         0.1917
     15 C4'        -0.9699    2.4597   -0.7819 C.3       1 ACP         0.0908
     16 O4'        -2.1475    1.8640   -0.2014 O.3       1 ACP        -0.4111
     17 C3'         0.1697    2.1347    0.1695 C.3       1 ACP         0.0927
     18 O3'         0.1809    3.0982    1.2223 O.3       1 ACP        -0.6127
     19 C2'        -0.2543    0.7880    0.7187 C.3       1 ACP         0.1095
     20 O2'         0.3606    0.4944    1.9582 O.3       1 ACP        -0.5953
     21 C1'        -1.7682    0.9516    0.8548 C.3       1 ACP         0.4273
     22 N9         -2.5926   -0.2553    0.7436 N.pl3     1 ACP        -0.6934
     23 C8         -2.2879   -1.3752    0.0161 C.ar      1 ACP         0.5422
     24 N7         -3.2214   -2.2987    0.1123 N.2       1 ACP        -0.5596
     25 C5         -4.1723   -1.7531    0.9377 C.ar      1 ACP        -0.2259
     26 C6         -5.3870   -2.2342    1.4159 C.ar      1 ACP         0.7526
     27 N6         -5.8433   -3.5142    1.0574 N.pl3     1 ACP        -0.9660
     28 N1         -6.1289   -1.4512    2.2356 N.ar      1 ACP        -0.8027
     29 C2         -5.6370   -0.2275    2.5461 C.ar      1 ACP         0.6758
     30 N3         -4.4810    0.3469    2.1476 N.ar      1 ACP        -0.7221
     31 C4         -3.7996   -0.4810    1.3417 C.ar      1 ACP         0.5858
     32 HOG2        1.2722    1.1222   -4.5420 H         1 ACP         0.4705
     33 HOG3        3.5582   -1.8873   -5.1813 H         1 ACP         0.4705
     34 H3B1        0.1662   -1.1517   -6.4915 H         1 ACP         0.1189
     35 H3B2       -0.2312   -2.4788   -5.4045 H         1 ACP         0.1189
     36 HOA2       -0.2786    3.6652   -5.6454 H         1 ACP         0.4679
     37 H5'1       -0.6593    0.7876   -2.1195 H         1 ACP         0.0587
     38 H5'2        0.1050    2.3070   -2.6537 H         1 ACP         0.0587
     39 H4'        -1.1469    3.5409   -0.8523 H         1 ACP         0.0938
     40 H3'         1.1601    2.1310   -0.2934 H         1 ACP         0.0597
     41 HO3'        0.3098    3.9616    0.8017 H         1 ACP         0.4554
     42 H2'        -0.0024   -0.0091    0.0062 H         1 ACP         0.0710
     43 HO2'        1.3225    0.4909    1.8095 H         1 ACP         0.4360
     44 H1'        -2.0584    1.4255    1.8301 H         1 ACP         0.1247
     45 H8         -1.3765   -1.4593   -0.5599 H         1 ACP         0.0875
     46 HN61       -5.3086   -4.0656    0.4134 H         1 ACP         0.4433
     47 HN62       -6.7426   -3.8233    1.3745 H         1 ACP         0.4433
     48 H2         -6.2570    0.3723    3.2040 H         1 ACP         0.0459
@<TRIPOS>BOND
     1    1    2 2
     2    1    3 1
     3    1    4 1
     4    1    8 1
     5    3   32 1
     6    4   33 1
     7    5    6 2
     8    5    7 1
     9    5    8 1
    10    5   12 1
    11    8   34 1
    12    8   35 1
    13    9   10 2
    14    9   11 1
    15    9   12 1
    16    9   13 1
    17   11   36 1
    18   13   14 1
    19   14   15 1
    20   14   37 1
    21   14   38 1
    22   15   16 1
    23   15   17 1
    24   15   39 1
    25   16   21 1
    26   17   18 1
    27   17   19 1
    28   17   40 1
    29   18   41 1
    30   19   20 1
    31   19   21 1
    32   19   42 1
    33   20   43 1
    34   21   22 1
    35   21   44 1
    36   22   23 ar
    37   22   31 ar
    38   23   24 ar
    39   23   45 1
    40   24   25 ar
    41   25   26 ar
    42   25   31 ar
    43   26   27 1
    44   26   28 ar
    45   27   46 1
    46   27   47 1
    47   28   29 ar
    48   29   30 ar
    49   29   48 1
    50   30   31 ar
@<TRIPOS>SUBSTRUCTURE
     1 ACP         1 GROUP 0 A     ****
@<TRIPOS>MOLECULE
[[5-(6-aminopurin-9-yl)-3,4-dihydroxy-tetrahydrofuran-2-yl]methoxy-hydroxy-phosphoryl]oxy-(phosphonomethyl)phosphinate
   48    50     1     0     0
SMALL
USER_CHARGES

@<TRIPOS>ATOM
      1 PG          1.1558    6.1200   -0.9077 P.3       1 ACP         1.6292
      2 O1G         2.6344    6.0224   -0.6801 O.2       1 ACP        -0.8674
      3 O2G         0.7107    6.7554   -2.3248 O.3       1 ACP        -0.7977
      4 O3G         0.3515    4.7202   -0.8488 O.3       1 ACP        -0.7977
      5 PB          0.2861    6.7684    2.1099 P.3       1 ACP         1.4910
      6 O1B        -0.5403    7.8356    2.7894 O.co2     1 ACP        -0.8292
      7 O2B         1.7161    6.4826    2.5061 O.co2     1 ACP        -0.8292
      8 C3B         0.2839    7.1448    0.2989 C.3       1 ACP        -0.6453
      9 PA         -1.1637    4.4705    3.2544 P.3       1 ACP         1.7996
     10 O1A        -2.1590    5.1765    4.1288 O.2       1 ACP        -0.8588
     11 O2A         0.1513    3.9395    4.0330 O.3       1 ACP        -0.8037
     12 O3A        -0.5591    5.3752    2.0579 O.3       1 ACP        -0.7988
     13 O5'        -1.7334    3.1724    2.4742 O.3       1 ACP        -0.5960
     14 C5'        -0.8811    2.4285    1.6206 C.3       1 ACP         0.1917
     15 C4'        -0.1994    1.3333    2.4288 C.3       1 ACP         0.0908
     16 O4'        -1.1285    0.2356    2.5840 O.3       1 ACP        -0.4111
     17 C3'         1.0324    0.7610    1.7344 C.3       1 ACP         0.0927
     18 O3'         1.9175    0.2377    2.7247 O.3       1 ACP        -0.6127
     19 C2'         0.4468   -0.3802    0.9263 C.3       1 ACP         0.1095
     20 O2'         1.3993   -1.3703    0.5961 O.3       1 ACP        -0.5953
     21 C1'        -0.6159   -0.9100    1.8769 C.3       1 ACP         0.4273
     22 N9         -1.7127   -1.6108    1.2130 N.pl3     1 ACP        -0.6934
     23 C8         -2.8641   -1.0399    0.7392 C.ar      1 ACP         0.5422
     24 N7         -3.6659   -1.9257    0.1858 N.2       1 ACP        -0.5596
     25 C5         -3.0053   -3.1223    0.3069 C.ar      1 ACP        -0.2259
     26 C6         -3.3321   -4.4178   -0.0813 C.ar      1 ACP         0.7526
     27 N6         -4.5476   -4.6866   -0.7335 N.pl3     1 ACP        -0.9660
     28 N1         -2.4608   -5.4225    0.1773 N.ar      1 ACP        -0.8027
     29 C2         -1.3053   -5.1020    0.8081 C.ar      1 ACP         0.6758
     30 N3         -0.8788   -3.8921    1.2315 N.ar      1 ACP        -0.7221
     31 C4         -1.7870   -2.9477    0.9438 C.ar      1 ACP         0.5858
     32 HOG2        0.9943    6.3142   -3.1537 H         1 ACP         0.4705
     33 HOG3       -0.6192    4.7234   -0.9906 H         1 ACP         0.4705
     34 H3B1        0.6801    8.1620    0.2021 H         1 ACP         0.1189
     35 H3B2       -0.7697    7.1833   -0.0003 H         1 ACP         0.1189
     36 HOA2        0.7232    4.5888    4.4950 H         1 ACP         0.4679
     37 H5'1       -1.4795    1.9921    0.8142 H         1 ACP         0.0587
     38 H5'2       -0.1362    3.1035    1.1868 H         1 ACP         0.0587
     39 H4'         0.0402    1.7079    3.4342 H         1 ACP         0.0938
     40 H3'         1.5907    1.4859    1.1353 H         1 ACP         0.0597
     41 HO3'        2.6839   -0.1150    2.2479 H         1 ACP         0.4554
     42 H2'        -0.0017    0.0018    0.0005 H         1 ACP         0.0710
     43 HO2'        2.0953   -0.9375    0.0709 H         1 ACP         0.4360
     44 H1'        -0.1998   -1.6319    2.6178 H         1 ACP         0.1247
     45 H8         -3.0609    0.0200    0.8250 H         1 ACP         0.0875
     46 HN61       -5.2046   -3.9433   -0.8775 H         1 ACP         0.4433
     47 HN62       -4.7849   -5.6332   -0.9625 H         1 ACP         0.4433
     48 H2         -0.6318   -5.9307    0.9993 H         1 ACP         0.0459
@<TRIPOS>BOND
     1    1    2 2
     2    1    3 1
     3    1    4 1
     4    1    8 1
     5    3   32 1
     6    4   33 1
     7    5    6 2
     8    5    7 1
     9    5    8 1
    10    5   12 1
    11    8   34 1
    12    8   35 1
    13    9   10 2
    14    9   11 1
    15    9   12 1
    16    9   13 1
    17   11   36 1
    18   13   14 1
    19   14   15 1
    20   14   37 1
    21   14   38 1
    22   15   16 1
    23   15   17 1
    24   15   39 1
    25   16   21 1
    26   17   18 1
    27   17   19 1
    28   17   40 1
    29   18   41 1
    30   19   20 1
    31   19   21 1
    32   19   42 1
    33   20   43 1
    34   21   22 1
    35   21   44 1
    36   22   23 ar
    37   22   31 ar
    38   23   24 ar
    39   23   45 1
    40   24   25 ar
    41   25   26 ar
    42   25   31 ar
    43   26   27 1
    44   26   28 ar
    45   27   46 1
    46   27   47 1
    47   28   29 ar
    48   29   30 ar
    49   29   48 1
    50   30   31 ar
@<TRIPOS>SUBSTRUCTURE
     1 ACP         1 GROUP 0 A     ****
@<TRIPOS>MOLECULE
[[5-(6-aminopurin-9-yl)-3,4-dihydroxy-tetrahydrofuran-2-yl]methoxy-hydroxy-phosphoryl]oxy-(phosphonomethyl)phosphinate
   48    50     1     0     0
SMALL
USER_CHARGES

@<TRIPOS>ATOM
      1 PG          7.4840   -0.7087   -0.8776 P.3       1 ACP         1.6292
      2 O1G         7.2504   -0.4325    0.5772 O.2       1 ACP        -0.8674
      3 O2G         8.5497   -1.8790   -1.2010 O.3       1 ACP        -0.7977
      4 O3G         6.1753   -1.1422   -1.7198 O.3       1 ACP        -0.7977
      5 PB          7.2002    2.3002   -1.9496 P.3       1 ACP         1.4910
      6 O1B         5.8738    1.9950   -2.6061 O.co2     1 ACP        -0.8292
      7 O2B         8.1604    3.3233   -2.5106 O.co2     1 ACP        -0.8292
      8 C3B         8.1219    0.7026   -1.8092 C.3       1 ACP        -0.6453
      9 PA          6.0788    3.6958    0.3928 P.3       1 ACP         1.7996
     10 O1A         6.4678    5.1128    0.0855 O.2       1 ACP        -0.8588
     11 O2A         6.1996    3.2939    1.9553 O.3       1 ACP        -0.8037
     12 O3A         6.9706    2.5756   -0.3591 O.3       1 ACP        -0.7988
     13 O5'         4.5673    3.2930   -0.0211 O.3       1 ACP        -0.5960
     14 C5'         4.0922    1.9801    0.2227 C.3       1 ACP         0.1917
     15 C4'         2.5944    2.0310    0.4653 C.3       1 ACP         0.0908
     16 O4'         1.9327    2.5740   -0.6889 O.3       1 ACP        -0.4111
     17 C3'         1.9685    0.6634    0.6767 C.3       1 ACP         0.0927
     18 O3'         2.1425    0.1975    1.9977 O.3       1 ACP        -0.6127
     19 C2'         0.5176    0.9128    0.3099 C.3       1 ACP         0.1095
     20 O2'        -0.2103    1.4454    1.4152 O.3       1 ACP        -0.5953
     21 C1'         0.6219    1.9765   -0.7844 C.3       1 ACP         0.4273
     22 N9          0.4237    1.4496   -2.1357 N.pl3     1 ACP        -0.6934
     23 C8         -0.7736    1.3475   -2.7932 C.ar      1 ACP         0.5422
     24 N7         -0.6356    0.8373   -3.9991 N.2       1 ACP        -0.5596
     25 C5          0.7095    0.5981   -4.1281 C.ar      1 ACP        -0.2259
     26 C6          1.4733    0.0704   -5.1643 C.ar      1 ACP         0.7526
     27 N6          0.8693   -0.3355   -6.3666 N.pl3     1 ACP        -0.9660
     28 N1          2.8130   -0.0482   -5.0009 N.ar      1 ACP        -0.8027
     29 C2          3.3380    0.3602   -3.8204 C.ar      1 ACP         0.6758
     30 N3          2.7052    0.8841   -2.7480 N.ar      1 ACP        -0.7221
     31 C4          1.3867    0.9726   -2.9785 C.ar      1 ACP         0.5858
     32 HOG2        8.3758   -2.7854   -0.8688 H         1 ACP         0.4705
     33 HOG3        6.2685   -1.3354   -2.6770 H         1 ACP         0.4705
     34 H3B1        9.0986    0.9549   -1.3810 H         1 ACP         0.1189
     35 H3B2        8.3016    0.3663   -2.8367 H         1 ACP         0.1189
     36 HOA2        5.6689    3.7896    2.6148 H         1 ACP         0.4679
     37 H5'1        4.3175    1.3541   -0.6468 H         1 ACP         0.0587
     38 H5'2        4.6079    1.5730    1.0985 H         1 ACP         0.0587
     39 H4'         2.3752    2.7029    1.3156 H         1 ACP         0.0938
     40 H3'         2.4336   -0.1217   -0.0016 H         1 ACP         0.0597
     41 HO3'        1.7160   -0.6716    2.0397 H         1 ACP         0.4554
     42 H2'         0.0316    0.0155   -0.0339 H         1 ACP         0.0710
     43 HO2'       -0.1608    0.7921    2.1351 H         1 ACP         0.4360
     44 H1'        -0.1474    2.7798   -0.6651 H         1 ACP         0.1247
     45 H8         -1.7070    1.6599   -2.3451 H         1 ACP         0.0875
     46 HN61       -0.1277   -0.2866   -6.4583 H         1 ACP         0.4433
     47 HN62        1.4308   -0.7566   -7.0823 H         1 ACP         0.4433
     48 H2          4.4130    0.2505   -3.7241 H         1 ACP         0.0459
@<TRIPOS>BOND
     1    1    2 2
     2    1    3 1
     3    1    4 1
     4    1    8 1
     5    3   32 1
     6    4   33 1
     7    5    6 2
     8    5    7 1
     9    5    8 1
    10    5   12 1
    11    8   34 1
    12    8   35 1
    13    9   10 2
    14    9   11 1
    15    9   12 1
    16    9   13 1
    17   11   36 1
    18   13   14 1
    19   14   15 1
    20   14   37 1
    21   14   38 1
    22   15   16 1
    23   15   17 1
    24   15   39 1
    25   16   21 1
    26   17   18 1
    27   17   19 1
    28   17   40 1
    29   18   41 1
    30   19   20 1
    31   19   21 1
    32   19   42 1
    33   20   43 1
    34   21   22 1
    35   21   44 1
    36   22   23 ar
    37   22   31 ar
    38   23   24 ar
    39   23   45 1
    40   24   25 ar
    41   25   26 ar
    42   25   31 ar
    43   26   27 1
    44   26   28 ar
    45   27   46 1
    46   27   47 1
    47   28   29 ar
    48   29   30 ar
    49   29   48 1
    50   30   31 ar
@<TRIPOS>SUBSTRUCTURE
     1 ACP         1 GROUP 0 A     ****
@<TRIPOS>MOLECULE
[[5-(6-aminopurin-9-yl)-3,4-dihydroxy-tetrahydrofuran-2-yl]methoxy-hydroxy-phosphoryl]oxy-(phosphonomethyl)phosphinate
   48    50     1     0     0
SMALL
USER_CHARGES

@<TRIPOS>ATOM
      1 PG         -3.9273    6.5196    4.7589 P.3       1 ACP         1.6292
      2 O1G        -3.4524    7.8199    5.3344 O.2       1 ACP        -0.8674
      3 O2G        -5.2895    5.9321    5.3988 O.3       1 ACP        -0.7977
      4 O3G        -4.2271    6.5324    3.1715 O.3       1 ACP        -0.7977
      5 PB         -1.0551    5.1975    4.2251 P.3       1 ACP         1.4910
      6 O1B        -0.3840    3.8922    4.5849 O.co2     1 ACP        -0.8292
      7 O2B        -0.4535    6.5375    4.5801 O.co2     1 ACP        -0.8292
      8 C3B        -2.7586    5.1535    4.9444 C.3       1 ACP        -0.6453
      9 PA         -0.5525    5.0215    1.3253 P.3       1 ACP         1.7996
     10 O1A         0.4935    6.0854    1.1588 O.2       1 ACP        -0.8588
     11 O2A        -1.6302    4.9500    0.1208 O.3       1 ACP        -0.8037
     12 O3A        -1.4691    5.1810    2.6482 O.3       1 ACP        -0.7988
     13 O5'         0.0170    3.5129    1.4593 O.3       1 ACP        -0.5960
     14 C5'        -0.8811    2.4285    1.6206 C.3       1 ACP         0.1917
     15 C4'        -0.1994    1.3333    2.4288 C.3       1 ACP         0.0908
     16 O4'        -1.1285    0.2356    2.5840 O.3       1 ACP        -0.4111
     17 C3'         1.0324    0.7610    1.7344 C.3       1 ACP         0.0927
     18 O3'         1.9175    0.2377    2.7247 O.3       1 ACP        -0.6127
     19 C2'         0.4468   -0.3802    0.9263 C.3       1 ACP         0.1095
     20 O2'         1.3993   -1.3703    0.5961 O.3       1 ACP        -0.5953
     21 C1'        -0.6159   -0.9100    1.8769 C.3       1 ACP         0.4273
     22 N9         -1.7127   -1.6108    1.2130 N.pl3     1 ACP        -0.6934
     23 C8         -2.0877   -2.9101    1.4304 C.ar      1 ACP         0.5422
     24 N7         -3.1152   -3.2613    0.6857 N.2       1 ACP        -0.5596
     25 C5         -3.4186   -2.1409   -0.0462 C.ar      1 ACP        -0.2259
     26 C6         -4.3953   -1.8809   -1.0023 C.ar      1 ACP         0.7526
     27 N6         -5.3118   -2.8767   -1.3812 N.pl3     1 ACP        -0.9660
     28 N1         -4.4538   -0.6507   -1.5667 N.ar      1 ACP        -0.8027
     29 C2         -3.5442    0.2679   -1.1609 C.ar      1 ACP         0.6758
     30 N3         -2.5561    0.1361   -0.2491 N.ar      1 ACP        -0.7221
     31 C4         -2.5568   -1.1019    0.2674 C.ar      1 ACP         0.5858
     32 HOG2       -6.1100    6.4668    5.3435 H         1 ACP         0.4705
     33 HOG3       -4.5406    5.7090    2.7403 H         1 ACP         0.4705
     34 H3B1       -2.6274    4.9870    6.0196 H         1 ACP         0.1189
     35 H3B2       -3.2349    4.2539    4.5383 H         1 ACP         0.1189
     36 HOA2       -2.1821    5.7384   -0.0690 H         1 ACP         0.4679
     37 H5'1       -1.7775    2.7842    2.1389 H         1 ACP         0.0587
     38 H5'2       -1.1659    2.0534    0.6322 H         1 ACP         0.0587
     39 H4'         0.0402    1.7079    3.4342 H         1 ACP         0.0938
     40 H3'         1.5907    1.4859    1.1353 H         1 ACP         0.0597
     41 HO3'        2.1521    0.9800    3.3017 H         1 ACP         0.4554
     42 H2'        -0.0017    0.0018    0.0005 H         1 ACP         0.0710
     43 HO2'        2.0953   -0.9375    0.0709 H         1 ACP         0.4360
     44 H1'        -0.1998   -1.6319    2.6178 H         1 ACP         0.1247
     45 H8         -1.5778   -3.5473    2.1399 H         1 ACP         0.0875
     46 HN61       -5.2294   -3.7965   -0.9914 H         1 ACP         0.4433
     47 HN62       -5.9774   -2.6837   -2.1055 H         1 ACP         0.4433
     48 H2         -3.6201    1.2414   -1.6336 H         1 ACP         0.0459
@<TRIPOS>BOND
     1    1    2 2
     2    1    3 1
     3    1    4 1
     4    1    8 1
     5    3   32 1
     6    4   33 1
     7    5    6 2
     8    5    7 1
     9    5    8 1
    10    5   12 1
    11    8   34 1
    12    8   35 1
    13    9   10 2
    14    9   11 1
    15    9   12 1
    16    9   13 1
    17   11   36 1
    18   13   14 1
    19   14   15 1
    20   14   37 1
    21   14   38 1
    22   15   16 1
    23   15   17 1
    24   15   39 1
    25   16   21 1
    26   17   18 1
    27   17   19 1
    28   17   40 1
    29   18   41 1
    30   19   20 1
    31   19   21 1
    32   19   42 1
    33   20   43 1
    34   21   22 1
    35   21   44 1
    36   22   23 ar
    37   22   31 ar
    38   23   24 ar
    39   23   45 1
    40   24   25 ar
    41   25   26 ar
    42   25   31 ar
    43   26   27 1
    44   26   28 ar
    45   27   46 1
    46   27   47 1
    47   28   29 ar
    48   29   30 ar
    49   29   48 1
    50   30   31 ar
@<TRIPOS>SUBSTRUCTURE
     1 ACP         1 GROUP 0 A     ****
@<TRIPOS>MOLECULE
[[5-(6-aminopurin-9-yl)-3,4-dihydroxy-tetrahydrofuran-2-yl]methoxy-hydroxy-phosphoryl]oxy-(phosphonomethyl)phosphinate
   48    50     1     0     0
SMALL
USER_CHARGES

@<TRIPOS>ATOM
      1 PG         -4.5662    5.9851   -1.4838 P.3       1 ACP         1.6292
      2 O1G        -3.4273    5.7561   -2.4313 O.2       1 ACP        -0.8674
      3 O2G        -4.8630    7.5293   -1.1133 O.3       1 ACP        -0.7977
      4 O3G        -6.0007    5.4294   -1.9769 O.3       1 ACP        -0.7977
      5 PB         -2.9443    5.6052    1.2563 P.3       1 ACP         1.4910
      6 O1B        -3.1080    4.7619    2.4995 O.co2     1 ACP        -0.8292
      7 O2B        -2.8316    7.1110    1.3132 O.co2     1 ACP        -0.8292
      8 C3B        -4.3573    5.2033    0.1323 C.3       1 ACP        -0.6453
      9 PA         -0.1733    4.7801    0.6785 P.3       1 ACP         1.7996
     10 O1A         0.5701    6.0367    1.0281 O.2       1 ACP        -0.8588
     11 O2A         0.3946    4.0088   -0.6253 O.3       1 ACP        -0.8037
     12 O3A        -1.7399    4.9978    0.3404 O.3       1 ACP        -0.7988
     13 O5'        -0.2069    3.6554    1.8412 O.3       1 ACP        -0.5960
     14 C5'        -0.8811    2.4285    1.6206 C.3       1 ACP         0.1917
     15 C4'        -0.1994    1.3333    2.4288 C.3       1 ACP         0.0908
     16 O4'        -1.1285    0.2356    2.5840 O.3       1 ACP        -0.4111
     17 C3'         1.0324    0.7610    1.7344 C.3       1 ACP         0.0927
     18 O3'         1.9175    0.2377    2.7247 O.3       1 ACP        -0.6127
     19 C2'         0.4468   -0.3802    0.9263 C.3       1 ACP         0.1095
     20 O2'         1.3993   -1.3703    0.5961 O.3       1 ACP        -0.5953
     21 C1'        -0.6159   -0.9100    1.8769 C.3       1 ACP         0.4273
     22 N9         -1.7127   -1.6108    1.2130 N.pl3     1 ACP        -0.6934
     23 C8         -2.5476   -1.0844    0.2632 C.ar      1 ACP         0.5422
     24 N7         -3.4391   -1.9591   -0.1536 N.2       1 ACP        -0.5596
     25 C5         -3.1701   -3.1016    0.5574 C.ar      1 ACP        -0.2259
     26 C6         -3.7593   -4.3620    0.5656 C.ar      1 ACP         0.7526
     27 N6         -4.8512   -4.6493   -0.2712 N.pl3     1 ACP        -0.9660
     28 N1         -3.2659   -5.3144    1.3932 N.ar      1 ACP        -0.8027
     29 C2         -2.2122   -4.9785    2.1759 C.ar      1 ACP         0.6758
     30 N3         -1.5595   -3.7985    2.2572 N.ar      1 ACP        -0.7221
     31 C4         -2.0986   -2.9054    1.4140 C.ar      1 ACP         0.5858
     32 HOG2       -4.1583    8.0589   -0.6831 H         1 ACP         0.4705
     33 HOG3       -6.3834    5.7757   -2.8110 H         1 ACP         0.4705
     34 H3B1       -5.2673    5.4074    0.7077 H         1 ACP         0.1189
     35 H3B2       -4.3174    4.1198   -0.0274 H         1 ACP         0.1189
     36 HOA2        1.3229    3.6919   -0.6217 H         1 ACP         0.4679
     37 H5'1       -1.9259    2.5372    1.9293 H         1 ACP         0.0587
     38 H5'2       -0.8477    2.1923    0.5521 H         1 ACP         0.0587
     39 H4'         0.0402    1.7079    3.4342 H         1 ACP         0.0938
     40 H3'         1.5907    1.4859    1.1353 H         1 ACP         0.0597
     41 HO3'        2.6839   -0.1150    2.2479 H         1 ACP         0.4554
     42 H2'        -0.0017    0.0018    0.0005 H         1 ACP         0.0710
     43 HO2'        2.0953   -0.9375    0.0709 H         1 ACP         0.4360
     44 H1'        -0.1998   -1.6319    2.6178 H         1 ACP         0.1247
     45 H8         -2.4576   -0.0639   -0.0831 H         1 ACP         0.0875
     46 HN61       -5.2371   -3.9234   -0.8448 H         1 ACP         0.4433
     47 HN62       -5.2909   -5.5485   -0.2160 H         1 ACP         0.4433
     48 H2         -1.8433   -5.7650    2.8259 H         1 ACP         0.0459
@<TRIPOS>BOND
     1    1    2 2
     2    1    3 1
     3    1    4 1
     4    1    8 1
     5    3   32 1
     6    4   33 1
     7    5    6 2
     8    5    7 1
     9    5    8 1
    10    5   12 1
    11    8   34 1
    12    8   35 1
    13    9   10 2
    14    9   11 1
    15    9   12 1
    16    9   13 1
    17   11   36 1
    18   13   14 1
    19   14   15 1
    20   14   37 1
    21   14   38 1
    22   15   16 1
    23   15   17 1
    24   15   39 1
    25   16   21 1
    26   17   18 1
    27   17   19 1
    28   17   40 1
    29   18   41 1
    30   19   20 1
    31   19   21 1
    32   19   42 1
    33   20   43 1
    34   21   22 1
    35   21   44 1
    36   22   23 ar
    37   22   31 ar
    38   23   24 ar
    39   23   45 1
    40   24   25 ar
    41   25   26 ar
    42   25   31 ar
    43   26   27 1
    44   26   28 ar
    45   27   46 1
    46   27   47 1
    47   28   29 ar
    48   29   30 ar
    49   29   48 1
    50   30   31 ar
@<TRIPOS>SUBSTRUCTURE
     1 ACP         1 GROUP 0 A     ****
@<TRIPOS>MOLECULE
[[5-(6-aminopurin-9-yl)-3,4-dihydroxy-tetrahydrofuran-2-yl]methoxy-hydroxy-phosphoryl]oxy-(phosphonomethyl)phosphinate
   48    50     1     0     0
SMALL
USER_CHARGES

@<TRIPOS>ATOM
      1 PG          0.4190    8.2695    1.8627 P.3       1 ACP         1.6292
      2 O1G         1.6720    8.8961    1.3290 O.2       1 ACP        -0.8674
      3 O2G         0.5714    7.5068    3.2787 O.3       1 ACP        -0.7977
      4 O3G        -0.8136    9.2846    2.1078 O.3       1 ACP        -0.7977
      5 PB         -1.8430    6.0887    1.2221 P.3       1 ACP         1.4910
      6 O1B        -2.1263    5.1276    0.0908 O.co2     1 ACP        -0.8292
      7 O2B        -2.8558    7.1105    1.6841 O.co2     1 ACP        -0.8292
      8 C3B        -0.2976    7.0069    0.7862 C.3       1 ACP        -0.6453
      9 PA         -1.9391    4.0774    3.3757 P.3       1 ACP         1.7996
     10 O1A        -3.2310    4.4475    4.0450 O.2       1 ACP        -0.8588
     11 O2A        -0.7613    3.6379    4.3940 O.3       1 ACP        -0.8037
     12 O3A        -1.2682    5.2646    2.5062 O.3       1 ACP        -0.7988
     13 O5'        -2.0397    2.8622    2.3121 O.3       1 ACP        -0.5960
     14 C5'        -0.8811    2.4285    1.6206 C.3       1 ACP         0.1917
     15 C4'        -0.1994    1.3333    2.4288 C.3       1 ACP         0.0908
     16 O4'        -1.1285    0.2356    2.5840 O.3       1 ACP        -0.4111
     17 C3'         1.0324    0.7610    1.7344 C.3       1 ACP         0.0927
     18 O3'         1.9175    0.2377    2.7247 O.3       1 ACP        -0.6127
     19 C2'         0.4468   -0.3802    0.9263 C.3       1 ACP         0.1095
     20 O2'         1.3993   -1.3703    0.5961 O.3       1 ACP        -0.5953
     21 C1'        -0.6159   -0.9100    1.8769 C.3       1 ACP         0.4273
     22 N9         -1.7127   -1.6108    1.2130 N.pl3     1 ACP        -0.6934
     23 C8         -1.7712   -2.9546    0.9544 C.ar      1 ACP         0.5422
     24 N7         -2.8883   -3.2948    0.3462 N.2       1 ACP        -0.5596
     25 C5         -3.5834   -2.1202    0.2043 C.ar      1 ACP        -0.2259
     26 C6         -4.8225   -1.8251   -0.3554 C.ar      1 ACP         0.7526
     27 N6         -5.6154   -2.8394   -0.9189 N.pl3     1 ACP        -0.9660
     28 N1         -5.2589   -0.5425   -0.3507 N.ar      1 ACP        -0.8027
     29 C2         -4.4510    0.3913    0.2069 C.ar      1 ACP         0.6758
     30 N3         -3.2368    0.2296    0.7767 N.ar      1 ACP        -0.7221
     31 C4         -2.8684   -1.0596    0.7376 C.ar      1 ACP         0.5858
     32 HOG2       -0.2169    7.0782    3.6750 H         1 ACP         0.4705
     33 HOG3       -0.6986   10.0290    2.7362 H         1 ACP         0.4705
     34 H3B1       -0.4929    7.4831   -0.1813 H         1 ACP         0.1189
     35 H3B2        0.4699    6.2432    0.6164 H         1 ACP         0.1189
     36 HOA2       -0.4545    4.2797    5.0694 H         1 ACP         0.4679
     37 H5'1       -1.1760    2.0499    0.6365 H         1 ACP         0.0587
     38 H5'2       -0.2073    3.2811    1.4873 H         1 ACP         0.0587
     39 H4'         0.0402    1.7079    3.4342 H         1 ACP         0.0938
     40 H3'         1.5907    1.4859    1.1353 H         1 ACP         0.0597
     41 HO3'        2.6839   -0.1150    2.2479 H         1 ACP         0.4554
     42 H2'        -0.0017    0.0018    0.0005 H         1 ACP         0.0710
     43 HO2'        2.0953   -0.9375    0.0709 H         1 ACP         0.4360
     44 H1'        -0.1998   -1.6319    2.6178 H         1 ACP         0.1247
     45 H8         -0.9745   -3.6312    1.2318 H         1 ACP         0.0875
     46 HN61       -5.2619   -3.7766   -0.9586 H         1 ACP         0.4433
     47 HN62       -6.4834   -2.5990   -1.3590 H         1 ACP         0.4433
     48 H2         -4.8317    1.4071    0.1930 H         1 ACP         0.0459
@<TRIPOS>BOND
     1    1    2 2
     2    1    3 1
     3    1    4 1
     4    1    8 1
     5    3   32 1
     6    4   33 1
     7    5    6 2
     8    5    7 1
     9    5    8 1
    10    5   12 1
    11    8   34 1
    12    8   35 1
    13    9   10 2
    14    9   11 1
    15    9   12 1
    16    9   13 1
    17   11   36 1
    18   13   14 1
    19   14   15 1
    20   14   37 1
    21   14   38 1
    22   15   16 1
    23   15   17 1
    24   15   39 1
    25   16   21 1
    26   17   18 1
    27   17   19 1
    28   17   40 1
    29   18   41 1
    30   19   20 1
    31   19   21 1
    32   19   42 1
    33   20   43 1
    34   21   22 1
    35   21   44 1
    36   22   23 ar
    37   22   31 ar
    38   23   24 ar
    39   23   45 1
    40   24   25 ar
    41   25   26 ar
    42   25   31 ar
    43   26   27 1
    44   26   28 ar
    45   27   46 1
    46   27   47 1
    47   28   29 ar
    48   29   30 ar
    49   29   48 1
    50   30   31 ar
@<TRIPOS>SUBSTRUCTURE
     1 ACP         1 GROUP 0 A     ****
@<TRIPOS>MOLECULE
[[5-(6-aminopurin-9-yl)-3,4-dihydroxy-tetrahydrofuran-2-yl]methoxy-hydroxy-phosphoryl]oxy-(phosphonomethyl)phosphinate
   48    50     1     0     0
SMALL
USER_CHARGES

@<TRIPOS>ATOM
      1 PG         -5.2420    3.5638   -2.3240 P.3       1 ACP         1.6292
      2 O1G        -5.2360    3.1378   -3.7613 O.2       1 ACP        -0.8674
      3 O2G        -4.3256    4.8478   -1.9753 O.3       1 ACP        -0.7977
      4 O3G        -6.6896    3.9547   -1.7229 O.3       1 ACP        -0.7977
      5 PB         -4.5579    2.5876    0.6529 P.3       1 ACP         1.4910
      6 O1B        -4.0168    1.3218    1.2763 O.co2     1 ACP        -0.8292
      7 O2B        -5.8752    3.1950    1.0764 O.co2     1 ACP        -0.8292
      8 C3B        -4.6468    2.3041   -1.1728 C.3       1 ACP        -0.6453
      9 PA         -2.5920    4.4092    1.8816 P.3       1 ACP         1.7996
     10 O1A        -3.4579    5.1208    2.8804 O.2       1 ACP        -0.8588
     11 O2A        -1.5023    5.3543    1.1490 O.3       1 ACP        -0.8037
     12 O3A        -3.3985    3.7339    0.6531 O.3       1 ACP        -0.7988
     13 O5'        -1.7334    3.1724    2.4742 O.3       1 ACP        -0.5960
     14 C5'        -0.8811    2.4285    1.6206 C.3       1 ACP         0.1917
     15 C4'        -0.1994    1.3333    2.4288 C.3       1 ACP         0.0908
     16 O4'        -1.1285    0.2356    2.5840 O.3       1 ACP        -0.4111
     17 C3'         1.0324    0.7610    1.7344 C.3       1 ACP         0.0927
     18 O3'         1.9175    0.2377    2.7247 O.3       1 ACP        -0.6127
     19 C2'         0.4468   -0.3802    0.9263 C.3       1 ACP         0.1095
     20 O2'         1.3993   -1.3703    0.5961 O.3       1 ACP        -0.5953
     21 C1'        -0.6159   -0.9100    1.8769 C.3       1 ACP         0.4273
     22 N9         -1.7127   -1.6108    1.2130 N.pl3     1 ACP        -0.6934
     23 C8         -2.1695   -1.3735   -0.0564 C.ar      1 ACP         0.5422
     24 N7         -3.1688   -2.1671   -0.3806 N.2       1 ACP        -0.5596
     25 C5         -3.3683   -2.9522    0.7270 C.ar      1 ACP        -0.2259
     26 C6         -4.2717   -3.9738    1.0025 C.ar      1 ACP         0.7526
     27 N6         -5.2165   -4.3746    0.0423 N.pl3     1 ACP        -0.9660
     28 N1         -4.2302   -4.5815    2.2126 N.ar      1 ACP        -0.8027
     29 C2         -3.2974   -4.1522    3.0967 C.ar      1 ACP         0.6758
     30 N3         -2.3737   -3.1778    2.9472 N.ar      1 ACP        -0.7221
     31 C4         -2.4717   -2.6214    1.7306 C.ar      1 ACP         0.5858
     32 HOG2       -4.2919    5.1704   -1.0495 H         1 ACP         0.4705
     33 HOG3       -7.1924    4.6898   -2.1343 H         1 ACP         0.4705
     34 H3B1       -5.2790    1.4195   -1.3098 H         1 ACP         0.1189
     35 H3B2       -3.6342    2.0236   -1.4845 H         1 ACP         0.1189
     36 HOA2       -1.8164    6.1210    0.6239 H         1 ACP         0.4679
     37 H5'1       -1.4795    1.9921    0.8142 H         1 ACP         0.0587
     38 H5'2       -0.1362    3.1035    1.1868 H         1 ACP         0.0587
     39 H4'         0.0402    1.7079    3.4342 H         1 ACP         0.0938
     40 H3'         1.5907    1.4859    1.1353 H         1 ACP         0.0597
     41 HO3'        2.1521    0.9800    3.3017 H         1 ACP         0.4554
     42 H2'        -0.0017    0.0018    0.0005 H         1 ACP         0.0710
     43 HO2'        0.9369   -2.0558    0.0825 H         1 ACP         0.4360
     44 H1'        -0.1998   -1.6319    2.6178 H         1 ACP         0.1247
     45 H8         -1.7364   -0.6145   -0.6934 H         1 ACP         0.0875
     46 HN61       -5.2686   -3.8865   -0.8317 H         1 ACP         0.4433
     47 HN62       -5.8889   -5.0800    0.2773 H         1 ACP         0.4433
     48 H2         -3.2930   -4.6606    4.0551 H         1 ACP         0.0459
@<TRIPOS>BOND
     1    1    2 2
     2    1    3 1
     3    1    4 1
     4    1    8 1
     5    3   32 1
     6    4   33 1
     7    5    6 2
     8    5    7 1
     9    5    8 1
    10    5   12 1
    11    8   34 1
    12    8   35 1
    13    9   10 2
    14    9   11 1
    15    9   12 1
    16    9   13 1
    17   11   36 1
    18   13   14 1
    19   14   15 1
    20   14   37 1
    21   14   38 1
    22   15   16 1
    23   15   17 1
    24   15   39 1
    25   16   21 1
    26   17   18 1
    27   17   19 1
    28   17   40 1
    29   18   41 1
    30   19   20 1
    31   19   21 1
    32   19   42 1
    33   20   43 1
    34   21   22 1
    35   21   44 1
    36   22   23 ar
    37   22   31 ar
    38   23   24 ar
    39   23   45 1
    40   24   25 ar
    41   25   26 ar
    42   25   31 ar
    43   26   27 1
    44   26   28 ar
    45   27   46 1
    46   27   47 1
    47   28   29 ar
    48   29   30 ar
    49   29   48 1
    50   30   31 ar
@<TRIPOS>SUBSTRUCTURE
     1 ACP         1 GROUP 0 A     ****
@<TRIPOS>MOLECULE
[[5-(6-aminopurin-9-yl)-3,4-dihydroxy-tetrahydrofuran-2-yl]methoxy-hydroxy-phosphoryl]oxy-(phosphonomethyl)phosphinate
   48    50     1     0     0
SMALL
USER_CHARGES

@<TRIPOS>ATOM
      1 PG          0.9014    6.7883    0.2125 P.3       1 ACP         1.6292
      2 O1G         0.7597    5.3375   -0.1371 O.2       1 ACP        -0.8674
      3 O2G         2.2484    7.1825    1.0127 O.3       1 ACP        -0.7977
      4 O3G         0.8911    7.8076   -1.0408 O.3       1 ACP        -0.7977
      5 PB         -0.7559    6.7452    2.9574 P.3       1 ACP         1.4910
      6 O1B        -1.9145    7.5276    3.5311 O.co2     1 ACP        -0.8292
      7 O2B         0.5707    6.6298    3.6716 O.co2     1 ACP        -0.8292
      8 C3B        -0.4140    7.4294    1.2732 C.3       1 ACP        -0.6453
      9 PA         -1.9391    4.0774    3.3757 P.3       1 ACP         1.7996
     10 O1A        -3.2310    4.4475    4.0450 O.2       1 ACP        -0.8588
     11 O2A        -0.7613    3.6379    4.3940 O.3       1 ACP        -0.8037
     12 O3A        -1.2682    5.2646    2.5062 O.3       1 ACP        -0.7988
     13 O5'        -2.0397    2.8622    2.3121 O.3       1 ACP        -0.5960
     14 C5'        -0.8811    2.4285    1.6206 C.3       1 ACP         0.1917
     15 C4'        -0.1994    1.3333    2.4288 C.3       1 ACP         0.0908
     16 O4'        -1.1285    0.2356    2.5840 O.3       1 ACP        -0.4111
     17 C3'         1.0324    0.7610    1.7344 C.3       1 ACP         0.0927
     18 O3'         1.9175    0.2377    2.7247 O.3       1 ACP        -0.6127
     19 C2'         0.4468   -0.3802    0.9263 C.3       1 ACP         0.1095
     20 O2'         1.3993   -1.3703    0.5961 O.3       1 ACP        -0.5953
     21 C1'        -0.6159   -0.9100    1.8769 C.3       1 ACP         0.4273
     22 N9         -1.7127   -1.6108    1.2130 N.pl3     1 ACP        -0.6934
     23 C8         -1.7712   -2.9546    0.9544 C.ar      1 ACP         0.5422
     24 N7         -2.8883   -3.2948    0.3462 N.2       1 ACP        -0.5596
     25 C5         -3.5834   -2.1202    0.2043 C.ar      1 ACP        -0.2259
     26 C6         -4.8225   -1.8251   -0.3554 C.ar      1 ACP         0.7526
     27 N6         -5.6154   -2.8394   -0.9189 N.pl3     1 ACP        -0.9660
     28 N1         -5.2589   -0.5425   -0.3507 N.ar      1 ACP        -0.8027
     29 C2         -4.4510    0.3913    0.2069 C.ar      1 ACP         0.6758
     30 N3         -3.2368    0.2296    0.7767 N.ar      1 ACP        -0.7221
     31 C4         -2.8684   -1.0596    0.7376 C.ar      1 ACP         0.5858
     32 HOG2        2.3935    8.1187    1.2672 H         1 ACP         0.4705
     33 HOG3        1.5806    7.7173   -1.7326 H         1 ACP         0.4705
     34 H3B1       -0.2190    8.4983    1.4161 H         1 ACP         0.1189
     35 H3B2       -1.3553    7.3487    0.7176 H         1 ACP         0.1189
     36 HOA2       -0.4545    4.2797    5.0694 H         1 ACP         0.4679
     37 H5'1       -1.1760    2.0499    0.6365 H         1 ACP         0.0587
     38 H5'2       -0.2073    3.2811    1.4873 H         1 ACP         0.0587
     39 H4'         0.0402    1.7079    3.4342 H         1 ACP         0.0938
     40 H3'         1.5907    1.4859    1.1353 H         1 ACP         0.0597
     41 HO3'        2.6839   -0.1150    2.2479 H         1 ACP         0.4554
     42 H2'        -0.0017    0.0018    0.0005 H         1 ACP         0.0710
     43 HO2'        2.0953   -0.9375    0.0709 H         1 ACP         0.4360
     44 H1'        -0.1998   -1.6319    2.6178 H         1 ACP         0.1247
     45 H8         -0.9745   -3.6312    1.2318 H         1 ACP         0.0875
     46 HN61       -5.2619   -3.7766   -0.9586 H         1 ACP         0.4433
     47 HN62       -6.4834   -2.5990   -1.3590 H         1 ACP         0.4433
     48 H2         -4.8317    1.4071    0.1930 H         1 ACP         0.0459
@<TRIPOS>BOND
     1    1    2 2
     2    1    3 1
     3    1    4 1
     4    1    8 1
     5    3   32 1
     6    4   33 1
     7    5    6 2
     8    5    7 1
     9    5    8 1
    10    5   12 1
    11    8   34 1
    12    8   35 1
    13    9   10 2
    14    9   11 1
    15    9   12 1
    16    9   13 1
    17   11   36 1
    18   13   14 1
    19   14   15 1
    20   14   37 1
    21   14   38 1
    22   15   16 1
    23   15   17 1
    24   15   39 1
    25   16   21 1
    26   17   18 1
    27   17   19 1
    28   17   40 1
    29   18   41 1
    30   19   20 1
    31   19   21 1
    32   19   42 1
    33   20   43 1
    34   21   22 1
    35   21   44 1
    36   22   23 ar
    37   22   31 ar
    38   23   24 ar
    39   23   45 1
    40   24   25 ar
    41   25   26 ar
    42   25   31 ar
    43   26   27 1
    44   26   28 ar
    45   27   46 1
    46   27   47 1
    47   28   29 ar
    48   29   30 ar
    49   29   48 1
    50   30   31 ar
@<TRIPOS>SUBSTRUCTURE
     1 ACP         1 GROUP 0 A     ****
@<TRIPOS>MOLECULE
[[5-(6-aminopurin-9-yl)-3,4-dihydroxy-tetrahydrofuran-2-yl]methoxy-hydroxy-phosphoryl]oxy-(phosphonomethyl)phosphinate
   48    50     1     0     0
SMALL
USER_CHARGES

@<TRIPOS>ATOM
      1 PG         -5.0019    3.7910   -1.4557 P.3       1 ACP         1.6292
      2 O1G        -6.2454    4.4044   -0.8856 O.2       1 ACP        -0.8674
      3 O2G        -4.3154    2.6420   -0.5510 O.3       1 ACP        -0.7977
      4 O3G        -5.1756    3.0862   -2.8989 O.3       1 ACP        -0.7977
      5 PB         -2.9014    5.9532   -0.3623 P.3       1 ACP         1.4910
      6 O1B        -4.0033    6.7944    0.2391 O.co2     1 ACP        -0.8292
      7 O2B        -1.6253    6.5600   -0.8977 O.co2     1 ACP        -0.8292
      8 C3B        -3.6539    4.9629   -1.7314 C.3       1 ACP        -0.6453
      9 PA         -2.0141    4.7372    2.1728 P.3       1 ACP         1.7996
     10 O1A        -2.9324    5.4191    3.1452 O.2       1 ACP        -0.8588
     11 O2A        -0.5452    5.4055    2.0600 O.3       1 ACP        -0.8037
     12 O3A        -2.5444    4.7218    0.6450 O.3       1 ACP        -0.7988
     13 O5'        -1.7334    3.1724    2.4742 O.3       1 ACP        -0.5960
     14 C5'        -0.8811    2.4285    1.6206 C.3       1 ACP         0.1917
     15 C4'        -0.1994    1.3333    2.4288 C.3       1 ACP         0.0908
     16 O4'        -1.1285    0.2356    2.5840 O.3       1 ACP        -0.4111
     17 C3'         1.0324    0.7610    1.7344 C.3       1 ACP         0.0927
     18 O3'         1.9175    0.2377    2.7247 O.3       1 ACP        -0.6127
     19 C2'         0.4468   -0.3802    0.9263 C.3       1 ACP         0.1095
     20 O2'         1.3993   -1.3703    0.5961 O.3       1 ACP        -0.5953
     21 C1'        -0.6159   -0.9100    1.8769 C.3       1 ACP         0.4273
     22 N9         -1.7127   -1.6108    1.2130 N.pl3     1 ACP        -0.6934
     23 C8         -1.6011   -2.7426    0.4497 C.ar      1 ACP         0.5422
     24 N7         -2.7657   -3.1449   -0.0147 N.2       1 ACP        -0.5596
     25 C5         -3.6708   -2.2337    0.4686 C.ar      1 ACP        -0.2259
     26 C6         -5.0501   -2.1167    0.3282 C.ar      1 ACP         0.7526
     27 N6         -5.7760   -3.0497   -0.4318 N.pl3     1 ACP        -0.9660
     28 N1         -5.6892   -1.0882    0.9359 N.ar      1 ACP        -0.8027
     29 C2         -4.9364   -0.2212    1.6553 C.ar      1 ACP         0.6758
     30 N3         -3.6016   -0.2290    1.8634 N.ar      1 ACP        -0.7221
     31 C4         -3.0352   -1.2703    1.2354 C.ar      1 ACP         0.5858
     32 HOG2       -4.0094    2.8682    0.3530 H         1 ACP         0.4705
     33 HOG3       -5.8068    2.3409   -2.9911 H         1 ACP         0.4705
     34 H3B1       -2.8293    4.4025   -2.1863 H         1 ACP         0.1189
     35 H3B2       -3.9953    5.6896   -2.4774 H         1 ACP         0.1189
     36 HOA2       -0.4706    6.3413    1.7757 H         1 ACP         0.4679
     37 H5'1       -1.4795    1.9921    0.8142 H         1 ACP         0.0587
     38 H5'2       -0.1362    3.1035    1.1868 H         1 ACP         0.0587
     39 H4'         0.0402    1.7079    3.4342 H         1 ACP         0.0938
     40 H3'         1.5907    1.4859    1.1353 H         1 ACP         0.0597
     41 HO3'        2.1521    0.9800    3.3017 H         1 ACP         0.4554
     42 H2'        -0.0017    0.0018    0.0005 H         1 ACP         0.0710
     43 HO2'        1.7495   -1.7243    1.4324 H         1 ACP         0.4360
     44 H1'        -0.1998   -1.6319    2.6178 H         1 ACP         0.1247
     45 H8         -0.6507   -3.2259    0.2692 H         1 ACP         0.0875
     46 HN61       -5.2868   -3.7791   -0.9150 H         1 ACP         0.4433
     47 HN62       -6.7619   -2.9208   -0.5594 H         1 ACP         0.4433
     48 H2         -5.4806    0.5898    2.1277 H         1 ACP         0.0459
@<TRIPOS>BOND
     1    1    2 2
     2    1    3 1
     3    1    4 1
     4    1    8 1
     5    3   32 1
     6    4   33 1
     7    5    6 2
     8    5    7 1
     9    5    8 1
    10    5   12 1
    11    8   34 1
    12    8   35 1
    13    9   10 2
    14    9   11 1
    15    9   12 1
    16    9   13 1
    17   11   36 1
    18   13   14 1
    19   14   15 1
    20   14   37 1
    21   14   38 1
    22   15   16 1
    23   15   17 1
    24   15   39 1
    25   16   21 1
    26   17   18 1
    27   17   19 1
    28   17   40 1
    29   18   41 1
    30   19   20 1
    31   19   21 1
    32   19   42 1
    33   20   43 1
    34   21   22 1
    35   21   44 1
    36   22   23 ar
    37   22   31 ar
    38   23   24 ar
    39   23   45 1
    40   24   25 ar
    41   25   26 ar
    42   25   31 ar
    43   26   27 1
    44   26   28 ar
    45   27   46 1
    46   27   47 1
    47   28   29 ar
    48   29   30 ar
    49   29   48 1
    50   30   31 ar
@<TRIPOS>SUBSTRUCTURE
     1 ACP         1 GROUP 0 A     ****
@<TRIPOS>MOLECULE
[[5-(6-aminopurin-9-yl)-3,4-dihydroxy-tetrahydrofuran-2-yl]methoxy-hydroxy-phosphoryl]oxy-(phosphonomethyl)phosphinate
   48    50     1     0     0
SMALL
USER_CHARGES

@<TRIPOS>ATOM
      1 PG         -1.6476    7.4216   -0.0477 P.3       1 ACP         1.6292
      2 O1G        -2.1307    6.0555   -0.4322 O.2       1 ACP        -0.8674
      3 O2G        -0.9339    8.2643   -1.2269 O.3       1 ACP        -0.7977
      4 O3G        -2.7835    8.4282    0.5058 O.3       1 ACP        -0.7977
      5 PB         -0.7559    6.7452    2.9574 P.3       1 ACP         1.4910
      6 O1B        -1.9145    7.5276    3.5311 O.co2     1 ACP        -0.8292
      7 O2B         0.5707    6.6298    3.6716 O.co2     1 ACP        -0.8292
      8 C3B        -0.4140    7.4294    1.2732 C.3       1 ACP        -0.6453
      9 PA         -1.9391    4.0774    3.3757 P.3       1 ACP         1.7996
     10 O1A        -3.2310    4.4475    4.0450 O.2       1 ACP        -0.8588
     11 O2A        -0.7613    3.6379    4.3940 O.3       1 ACP        -0.8037
     12 O3A        -1.2682    5.2646    2.5062 O.3       1 ACP        -0.7988
     13 O5'        -2.0397    2.8622    2.3121 O.3       1 ACP        -0.5960
     14 C5'        -0.8811    2.4285    1.6206 C.3       1 ACP         0.1917
     15 C4'        -0.1994    1.3333    2.4288 C.3       1 ACP         0.0908
     16 O4'        -1.1285    0.2356    2.5840 O.3       1 ACP        -0.4111
     17 C3'         1.0324    0.7610    1.7344 C.3       1 ACP         0.0927
     18 O3'         1.9175    0.2377    2.7247 O.3       1 ACP        -0.6127
     19 C2'         0.4468   -0.3802    0.9263 C.3       1 ACP         0.1095
     20 O2'         1.3993   -1.3703    0.5961 O.3       1 ACP        -0.5953
     21 C1'        -0.6159   -0.9100    1.8769 C.3       1 ACP         0.4273
     22 N9         -1.7127   -1.6108    1.2130 N.pl3     1 ACP        -0.6934
     23 C8         -1.7712   -2.9546    0.9544 C.ar      1 ACP         0.5422
     24 N7         -2.8883   -3.2948    0.3462 N.2       1 ACP        -0.5596
     25 C5         -3.5834   -2.1202    0.2043 C.ar      1 ACP        -0.2259
     26 C6         -4.8225   -1.8251   -0.3554 C.ar      1 ACP         0.7526
     27 N6         -5.6154   -2.8394   -0.9189 N.pl3     1 ACP        -0.9660
     28 N1         -5.2589   -0.5425   -0.3507 N.ar      1 ACP        -0.8027
     29 C2         -4.4510    0.3913    0.2069 C.ar      1 ACP         0.6758
     30 N3         -3.2368    0.2296    0.7767 N.ar      1 ACP        -0.7221
     31 C4         -2.8684   -1.0596    0.7376 C.ar      1 ACP         0.5858
     32 HOG2       -1.4444    8.4728   -2.0381 H         1 ACP         0.4705
     33 HOG3       -2.5249    9.3361    0.7727 H         1 ACP         0.4705
     34 H3B1        0.4605    6.8854    0.8989 H         1 ACP         0.1189
     35 H3B2       -0.1013    8.4685    1.4270 H         1 ACP         0.1189
     36 HOA2       -0.4545    4.2797    5.0694 H         1 ACP         0.4679
     37 H5'1       -1.1760    2.0499    0.6365 H         1 ACP         0.0587
     38 H5'2       -0.2073    3.2811    1.4873 H         1 ACP         0.0587
     39 H4'         0.0402    1.7079    3.4342 H         1 ACP         0.0938
     40 H3'         1.5907    1.4859    1.1353 H         1 ACP         0.0597
     41 HO3'        2.6839   -0.1150    2.2479 H         1 ACP         0.4554
     42 H2'        -0.0017    0.0018    0.0005 H         1 ACP         0.0710
     43 HO2'        2.0953   -0.9375    0.0709 H         1 ACP         0.4360
     44 H1'        -0.1998   -1.6319    2.6178 H         1 ACP         0.1247
     45 H8         -0.9745   -3.6312    1.2318 H         1 ACP         0.0875
     46 HN61       -5.2619   -3.7766   -0.9586 H         1 ACP         0.4433
     47 HN62       -6.4834   -2.5990   -1.3590 H         1 ACP         0.4433
     48 H2         -4.8317    1.4071    0.1930 H         1 ACP         0.0459
@<TRIPOS>BOND
     1    1    2 2
     2    1    3 1
     3    1    4 1
     4    1    8 1
     5    3   32 1
     6    4   33 1
     7    5    6 2
     8    5    7 1
     9    5    8 1
    10    5   12 1
    11    8   34 1
    12    8   35 1
    13    9   10 2
    14    9   11 1
    15    9   12 1
    16    9   13 1
    17   11   36 1
    18   13   14 1
    19   14   15 1
    20   14   37 1
    21   14   38 1
    22   15   16 1
    23   15   17 1
    24   15   39 1
    25   16   21 1
    26   17   18 1
    27   17   19 1
    28   17   40 1
    29   18   41 1
    30   19   20 1
    31   19   21 1
    32   19   42 1
    33   20   43 1
    34   21   22 1
    35   21   44 1
    36   22   23 ar
    37   22   31 ar
    38   23   24 ar
    39   23   45 1
    40   24   25 ar
    41   25   26 ar
    42   25   31 ar
    43   26   27 1
    44   26   28 ar
    45   27   46 1
    46   27   47 1
    47   28   29 ar
    48   29   30 ar
    49   29   48 1
    50   30   31 ar
@<TRIPOS>SUBSTRUCTURE
     1 ACP         1 GROUP 0 A     ****
@<TRIPOS>MOLECULE
[[5-(6-aminopurin-9-yl)-3,4-dihydroxy-tetrahydrofuran-2-yl]methoxy-hydroxy-phosphoryl]oxy-(phosphonomethyl)phosphinate
   48    50     1     0     0
SMALL
USER_CHARGES

@<TRIPOS>ATOM
      1 PG         -4.1196   -1.9236   -3.8241 P.3       1 ACP         1.6292
      2 O1G        -5.3449   -1.6047   -4.6268 O.2       1 ACP        -0.8674
      3 O2G        -3.7520   -0.8607   -2.6643 O.3       1 ACP        -0.7977
      4 O3G        -4.1489   -3.3397   -3.0472 O.3       1 ACP        -0.7977
      5 PB         -1.9530   -0.5917   -5.7772 P.3       1 ACP         1.4910
      6 O1B        -3.0143   -0.2289   -6.7900 O.co2     1 ACP        -0.8292
      7 O2B        -0.5363   -0.9293   -6.1804 O.co2     1 ACP        -0.8292
      8 C3B        -2.5987   -2.0204   -4.7956 C.3       1 ACP        -0.6453
      9 PA         -1.6646    2.1132   -4.6402 P.3       1 ACP         1.7996
     10 O1A        -2.6285    2.8802   -5.4982 O.2       1 ACP        -0.8588
     11 O2A        -0.1202    2.2215   -5.1097 O.3       1 ACP        -0.8037
     12 O3A        -1.9353    0.5196   -4.5844 O.3       1 ACP        -0.7988
     13 O5'        -1.6512    2.5329   -3.0776 O.3       1 ACP        -0.5960
     14 C5'        -0.7794    1.8744   -2.1748 C.3       1 ACP         0.1917
     15 C4'        -0.9699    2.4597   -0.7819 C.3       1 ACP         0.0908
     16 O4'        -2.1475    1.8640   -0.2014 O.3       1 ACP        -0.4111
     17 C3'         0.1697    2.1347    0.1695 C.3       1 ACP         0.0927
     18 O3'         0.1809    3.0982    1.2223 O.3       1 ACP        -0.6127
     19 C2'        -0.2543    0.7880    0.7187 C.3       1 ACP         0.1095
     20 O2'         0.3606    0.4944    1.9582 O.3       1 ACP        -0.5953
     21 C1'        -1.7682    0.9516    0.8548 C.3       1 ACP         0.4273
     22 N9         -2.5926   -0.2553    0.7436 N.pl3     1 ACP        -0.6934
     23 C8         -3.8700   -0.3163    0.2529 C.ar      1 ACP         0.5422
     24 N7         -4.3522   -1.5414    0.2751 N.2       1 ACP        -0.5596
     25 C5         -3.3434   -2.3070    0.8036 C.ar      1 ACP        -0.2259
     26 C6         -3.2433   -3.6673    1.0777 C.ar      1 ACP         0.7526
     27 N6         -4.3152   -4.5349    0.8066 N.pl3     1 ACP        -0.9660
     28 N1         -2.0949   -4.1491    1.6112 N.ar      1 ACP        -0.8027
     29 C2         -1.0966   -3.2647    1.8500 C.ar      1 ACP         0.6758
     30 N3         -1.0746   -1.9321    1.6291 N.ar      1 ACP        -0.7221
     31 C4         -2.2390   -1.5249    1.1020 C.ar      1 ACP         0.5858
     32 HOG2       -3.5700    0.0705   -2.9132 H         1 ACP         0.4705
     33 HOG3       -4.8515   -3.5027   -2.3823 H         1 ACP         0.4705
     34 H3B1       -1.7944   -2.3000   -4.1059 H         1 ACP         0.1189
     35 H3B2       -2.7121   -2.8478   -5.5053 H         1 ACP         0.1189
     36 HOA2        0.1258    1.9096   -6.0065 H         1 ACP         0.4679
     37 H5'1       -1.0110    0.8043   -2.1746 H         1 ACP         0.0587
     38 H5'2        0.2528    2.0159   -2.5111 H         1 ACP         0.0587
     39 H4'        -1.1469    3.5409   -0.8523 H         1 ACP         0.0938
     40 H3'         1.1601    2.1310   -0.2934 H         1 ACP         0.0597
     41 HO3'        0.3098    3.9616    0.8017 H         1 ACP         0.4554
     42 H2'        -0.0024   -0.0091    0.0062 H         1 ACP         0.0710
     43 HO2'        1.3225    0.4909    1.8095 H         1 ACP         0.4360
     44 H1'        -2.0584    1.4255    1.8301 H         1 ACP         0.1247
     45 H8         -4.3937    0.5597   -0.1045 H         1 ACP         0.0875
     46 HN61       -5.1761   -4.1600    0.4557 H         1 ACP         0.4433
     47 HN62       -4.2402   -5.5032    1.0550 H         1 ACP         0.4433
     48 H2         -0.1923   -3.6849    2.2775 H         1 ACP         0.0459
@<TRIPOS>BOND
     1    1    2 2
     2    1    3 1
     3    1    4 1
     4    1    8 1
     5    3   32 1
     6    4   33 1
     7    5    6 2
     8    5    7 1
     9    5    8 1
    10    5   12 1
    11    8   34 1
    12    8   35 1
    13    9   10 2
    14    9   11 1
    15    9   12 1
    16    9   13 1
    17   11   36 1
    18   13   14 1
    19   14   15 1
    20   14   37 1
    21   14   38 1
    22   15   16 1
    23   15   17 1
    24   15   39 1
    25   16   21 1
    26   17   18 1
    27   17   19 1
    28   17   40 1
    29   18   41 1
    30   19   20 1
    31   19   21 1
    32   19   42 1
    33   20   43 1
    34   21   22 1
    35   21   44 1
    36   22   23 ar
    37   22   31 ar
    38   23   24 ar
    39   23   45 1
    40   24   25 ar
    41   25   26 ar
    42   25   31 ar
    43   26   27 1
    44   26   28 ar
    45   27   46 1
    46   27   47 1
    47   28   29 ar
    48   29   30 ar
    49   29   48 1
    50   30   31 ar
@<TRIPOS>SUBSTRUCTURE
     1 ACP         1 GROUP 0 A     ****
@<TRIPOS>MOLECULE
[[5-(6-aminopurin-9-yl)-3,4-dihydroxy-tetrahydrofuran-2-yl]methoxy-hydroxy-phosphoryl]oxy-(phosphonomethyl)phosphinate
   48    50     1     0     0
SMALL
USER_CHARGES

@<TRIPOS>ATOM
      1 PG          5.8606    1.8561   -4.7932 P.3       1 ACP         1.6292
      2 O1G         6.2490    3.1051   -5.5257 O.2       1 ACP        -0.8674
      3 O2G         4.5807    1.9919   -3.8168 O.3       1 ACP        -0.7977
      4 O3G         5.4939    0.5902   -5.7275 O.3       1 ACP        -0.7977
      5 PB          7.8432    2.1753   -2.2932 P.3       1 ACP         1.4910
      6 O1B         8.4548    3.4294   -2.8736 O.co2     1 ACP        -0.8292
      7 O2B         8.6345    1.2155   -1.4352 O.co2     1 ACP        -0.8292
      8 C3B         7.1462    1.2028   -3.7038 C.3       1 ACP        -0.6453
      9 PA          6.1389    3.5429   -0.3138 P.3       1 ACP         1.7996
     10 O1A         6.5226    4.9737   -0.5571 O.2       1 ACP        -0.8588
     11 O2A         6.9057    2.8480    0.9299 O.3       1 ACP        -0.8037
     12 O3A         6.4393    2.5464   -1.5517 O.3       1 ACP        -0.7988
     13 O5'         4.5673    3.2930   -0.0211 O.3       1 ACP        -0.5960
     14 C5'         4.0922    1.9801    0.2227 C.3       1 ACP         0.1917
     15 C4'         2.5944    2.0310    0.4653 C.3       1 ACP         0.0908
     16 O4'         1.9327    2.5740   -0.6889 O.3       1 ACP        -0.4111
     17 C3'         1.9685    0.6634    0.6767 C.3       1 ACP         0.0927
     18 O3'         2.1425    0.1975    1.9977 O.3       1 ACP        -0.6127
     19 C2'         0.5176    0.9128    0.3099 C.3       1 ACP         0.1095
     20 O2'        -0.2103    1.4454    1.4152 O.3       1 ACP        -0.5953
     21 C1'         0.6219    1.9765   -0.7844 C.3       1 ACP         0.4273
     22 N9          0.4237    1.4496   -2.1357 N.pl3     1 ACP        -0.6934
     23 C8         -0.5566    1.8304   -3.0133 C.ar      1 ACP         0.5422
     24 N7         -0.4788    1.1815   -4.1563 N.2       1 ACP        -0.5596
     25 C5          0.5985    0.3438   -4.0126 C.ar      1 ACP        -0.2259
     26 C6          1.1840   -0.5863   -4.8658 C.ar      1 ACP         0.7526
     27 N6          0.6656   -0.8050   -6.1536 N.pl3     1 ACP        -0.9660
     28 N1          2.2653   -1.2823   -4.4393 N.ar      1 ACP        -0.8027
     29 C2          2.7197   -1.0279   -3.1884 C.ar      1 ACP         0.6758
     30 N3          2.2404   -0.1568   -2.2739 N.ar      1 ACP        -0.7221
     31 C4          1.1743    0.4954   -2.7613 C.ar      1 ACP         0.5858
     32 HOG2        4.6135    2.6349   -3.0767 H         1 ACP         0.4705
     33 HOG3        4.7515    0.6682   -6.3639 H         1 ACP         0.4705
     34 H3B1        6.7568    0.2760   -3.2674 H         1 ACP         0.1189
     35 H3B2        8.0011    0.9253   -4.3309 H         1 ACP         0.1189
     36 HOA2        6.8017    3.2332    1.8260 H         1 ACP         0.4679
     37 H5'1        4.3175    1.3541   -0.6468 H         1 ACP         0.0587
     38 H5'2        4.6079    1.5730    1.0985 H         1 ACP         0.0587
     39 H4'         2.3752    2.7029    1.3156 H         1 ACP         0.0938
     40 H3'         2.4336   -0.1217   -0.0016 H         1 ACP         0.0597
     41 HO3'        1.7160   -0.6716    2.0397 H         1 ACP         0.4554
     42 H2'         0.0316    0.0155   -0.0339 H         1 ACP         0.0710
     43 HO2'       -0.1608    0.7921    2.1351 H         1 ACP         0.4360
     44 H1'        -0.1474    2.7798   -0.6651 H         1 ACP         0.1247
     45 H8         -1.2942    2.5813   -2.7649 H         1 ACP         0.0875
     46 HN61        1.1301   -1.4449   -6.7698 H         1 ACP         0.4433
     47 HN62       -0.1051   -0.2504   -6.4752 H         1 ACP         0.4433
     48 H2          3.5863   -1.6031   -2.8800 H         1 ACP         0.0459
@<TRIPOS>BOND
     1    1    2 2
     2    1    3 1
     3    1    4 1
     4    1    8 1
     5    3   32 1
     6    4   33 1
     7    5    6 2
     8    5    7 1
     9    5    8 1
    10    5   12 1
    11    8   34 1
    12    8   35 1
    13    9   10 2
    14    9   11 1
    15    9   12 1
    16    9   13 1
    17   11   36 1
    18   13   14 1
    19   14   15 1
    20   14   37 1
    21   14   38 1
    22   15   16 1
    23   15   17 1
    24   15   39 1
    25   16   21 1
    26   17   18 1
    27   17   19 1
    28   17   40 1
    29   18   41 1
    30   19   20 1
    31   19   21 1
    32   19   42 1
    33   20   43 1
    34   21   22 1
    35   21   44 1
    36   22   23 ar
    37   22   31 ar
    38   23   24 ar
    39   23   45 1
    40   24   25 ar
    41   25   26 ar
    42   25   31 ar
    43   26   27 1
    44   26   28 ar
    45   27   46 1
    46   27   47 1
    47   28   29 ar
    48   29   30 ar
    49   29   48 1
    50   30   31 ar
@<TRIPOS>SUBSTRUCTURE
     1 ACP         1 GROUP 0 A     ****
@<TRIPOS>MOLECULE
[[5-(6-aminopurin-9-yl)-3,4-dihydroxy-tetrahydrofuran-2-yl]methoxy-hydroxy-phosphoryl]oxy-(phosphonomethyl)phosphinate
   48    50     1     0     0
SMALL
USER_CHARGES

@<TRIPOS>ATOM
      1 PG         -2.6939    3.8073   -2.7361 P.3       1 ACP         1.6292
      2 O1G        -3.4886    3.1025   -3.7941 O.2       1 ACP        -0.8674
      3 O2G        -1.9968    2.8504   -1.6368 O.3       1 ACP        -0.7977
      4 O3G        -1.4739    4.7178   -3.2767 O.3       1 ACP        -0.7977
      5 PB         -2.9014    5.9532   -0.3623 P.3       1 ACP         1.4910
      6 O1B        -4.0033    6.7944    0.2391 O.co2     1 ACP        -0.8292
      7 O2B        -1.6253    6.5600   -0.8977 O.co2     1 ACP        -0.8292
      8 C3B        -3.6539    4.9629   -1.7314 C.3       1 ACP        -0.6453
      9 PA         -2.0141    4.7372    2.1728 P.3       1 ACP         1.7996
     10 O1A        -2.9324    5.4191    3.1452 O.2       1 ACP        -0.8588
     11 O2A        -0.5452    5.4055    2.0600 O.3       1 ACP        -0.8037
     12 O3A        -2.5444    4.7218    0.6450 O.3       1 ACP        -0.7988
     13 O5'        -1.7334    3.1724    2.4742 O.3       1 ACP        -0.5960
     14 C5'        -0.8811    2.4285    1.6206 C.3       1 ACP         0.1917
     15 C4'        -0.1994    1.3333    2.4288 C.3       1 ACP         0.0908
     16 O4'        -1.1285    0.2356    2.5840 O.3       1 ACP        -0.4111
     17 C3'         1.0324    0.7610    1.7344 C.3       1 ACP         0.0927
     18 O3'         1.9175    0.2377    2.7247 O.3       1 ACP        -0.6127
     19 C2'         0.4468   -0.3802    0.9263 C.3       1 ACP         0.1095
     20 O2'         1.3993   -1.3703    0.5961 O.3       1 ACP        -0.5953
     21 C1'        -0.6159   -0.9100    1.8769 C.3       1 ACP         0.4273
     22 N9         -1.7127   -1.6108    1.2130 N.pl3     1 ACP        -0.6934
     23 C8         -3.0342   -1.2519    1.2439 C.ar      1 ACP         0.5422
     24 N7         -3.7886   -2.0756    0.5467 N.2       1 ACP        -0.5596
     25 C5         -2.9179   -3.0087    0.0426 C.ar      1 ACP        -0.2259
     26 C6         -3.1045   -4.1262   -0.7649 C.ar      1 ACP         0.7526
     27 N6         -4.3870   -4.4763   -1.2206 N.pl3     1 ACP        -0.9660
     28 N1         -2.0306   -4.8769   -1.1094 N.ar      1 ACP        -0.8027
     29 C2         -0.8199   -4.4895   -0.6402 C.ar      1 ACP         0.6758
     30 N3         -0.5140   -3.4335    0.1448 N.ar      1 ACP        -0.7221
     31 C4         -1.6202   -2.7371    0.4460 C.ar      1 ACP         0.5858
     32 HOG2       -1.4644    3.2581   -0.9209 H         1 ACP         0.4705
     33 HOG3       -0.7561    4.2928   -3.7929 H         1 ACP         0.4705
     34 H3B1       -4.1018    5.6901   -2.4182 H         1 ACP         0.1189
     35 H3B2       -4.4793    4.4011   -1.2794 H         1 ACP         0.1189
     36 HOA2       -0.4706    6.3413    1.7757 H         1 ACP         0.4679
     37 H5'1       -1.4795    1.9921    0.8142 H         1 ACP         0.0587
     38 H5'2       -0.1362    3.1035    1.1868 H         1 ACP         0.0587
     39 H4'         0.0402    1.7079    3.4342 H         1 ACP         0.0938
     40 H3'         1.5907    1.4859    1.1353 H         1 ACP         0.0597
     41 HO3'        2.1521    0.9800    3.3017 H         1 ACP         0.4554
     42 H2'        -0.0017    0.0018    0.0005 H         1 ACP         0.0710
     43 HO2'        2.0953   -0.9375    0.0709 H         1 ACP         0.4360
     44 H1'        -0.1998   -1.6319    2.6178 H         1 ACP         0.1247
     45 H8         -3.3847   -0.3852    1.7876 H         1 ACP         0.0875
     46 HN61       -5.1798   -3.9409   -0.9211 H         1 ACP         0.4433
     47 HN62       -4.5065   -5.3114   -1.7621 H         1 ACP         0.4433
     48 H2          0.0171   -5.1133   -0.9354 H         1 ACP         0.0459
@<TRIPOS>BOND
     1    1    2 2
     2    1    3 1
     3    1    4 1
     4    1    8 1
     5    3   32 1
     6    4   33 1
     7    5    6 2
     8    5    7 1
     9    5    8 1
    10    5   12 1
    11    8   34 1
    12    8   35 1
    13    9   10 2
    14    9   11 1
    15    9   12 1
    16    9   13 1
    17   11   36 1
    18   13   14 1
    19   14   15 1
    20   14   37 1
    21   14   38 1
    22   15   16 1
    23   15   17 1
    24   15   39 1
    25   16   21 1
    26   17   18 1
    27   17   19 1
    28   17   40 1
    29   18   41 1
    30   19   20 1
    31   19   21 1
    32   19   42 1
    33   20   43 1
    34   21   22 1
    35   21   44 1
    36   22   23 ar
    37   22   31 ar
    38   23   24 ar
    39   23   45 1
    40   24   25 ar
    41   25   26 ar
    42   25   31 ar
    43   26   27 1
    44   26   28 ar
    45   27   46 1
    46   27   47 1
    47   28   29 ar
    48   29   30 ar
    49   29   48 1
    50   30   31 ar
@<TRIPOS>SUBSTRUCTURE
     1 ACP         1 GROUP 0 A     ****
@<TRIPOS>MOLECULE
[[5-(6-aminopurin-9-yl)-3,4-dihydroxy-tetrahydrofuran-2-yl]methoxy-hydroxy-phosphoryl]oxy-(phosphonomethyl)phosphinate
   48    50     1     0     0
SMALL
USER_CHARGES

@<TRIPOS>ATOM
      1 PG          2.0271    5.2241   -1.8477 P.3       1 ACP         1.6292
      2 O1G         2.1534    3.9212   -1.1171 O.2       1 ACP        -0.8674
      3 O2G         3.2337    6.2726   -1.6135 O.3       1 ACP        -0.7977
      4 O3G         1.9285    5.1103   -3.4561 O.3       1 ACP        -0.7977
      5 PB         -1.1591    5.5315   -1.6552 P.3       1 ACP         1.4910
      6 O1B        -1.3263    5.2482   -3.1302 O.co2     1 ACP        -0.8292
      7 O2B        -2.0946    6.4463   -0.8994 O.co2     1 ACP        -0.8292
      8 C3B         0.5562    6.1804   -1.4135 C.3       1 ACP        -0.6453
      9 PA         -1.9903    2.8601   -0.7251 P.3       1 ACP         1.7996
     10 O1A        -2.3239    2.2013   -2.0321 O.2       1 ACP        -0.8588
     11 O2A        -3.2682    3.4570    0.0674 O.3       1 ACP        -0.8037
     12 O3A        -0.9912    4.1261   -0.8460 O.3       1 ACP        -0.7988
     13 O5'        -1.2435    1.9111    0.3519 O.3       1 ACP        -0.5960
     14 C5'        -0.8811    2.4285    1.6206 C.3       1 ACP         0.1917
     15 C4'        -0.1994    1.3333    2.4288 C.3       1 ACP         0.0908
     16 O4'        -1.1285    0.2356    2.5840 O.3       1 ACP        -0.4111
     17 C3'         1.0324    0.7610    1.7344 C.3       1 ACP         0.0927
     18 O3'         1.9175    0.2377    2.7247 O.3       1 ACP        -0.6127
     19 C2'         0.4468   -0.3802    0.9263 C.3       1 ACP         0.1095
     20 O2'         1.3993   -1.3703    0.5961 O.3       1 ACP        -0.5953
     21 C1'        -0.6159   -0.9100    1.8769 C.3       1 ACP         0.4273
     22 N9         -1.7127   -1.6108    1.2130 N.pl3     1 ACP        -0.6934
     23 C8         -1.6011   -2.7426    0.4497 C.ar      1 ACP         0.5422
     24 N7         -2.7657   -3.1449   -0.0147 N.2       1 ACP        -0.5596
     25 C5         -3.6708   -2.2337    0.4686 C.ar      1 ACP        -0.2259
     26 C6         -5.0501   -2.1167    0.3282 C.ar      1 ACP         0.7526
     27 N6         -5.7760   -3.0497   -0.4318 N.pl3     1 ACP        -0.9660
     28 N1         -5.6892   -1.0882    0.9359 N.ar      1 ACP        -0.8027
     29 C2         -4.9364   -0.2212    1.6553 C.ar      1 ACP         0.6758
     30 N3         -3.6016   -0.2290    1.8634 N.ar      1 ACP        -0.7221
     31 C4         -3.0352   -1.2703    1.2354 C.ar      1 ACP         0.5858
     32 HOG2        4.1457    6.0113   -1.8627 H         1 ACP         0.4705
     33 HOG3        1.8443    5.9312   -3.9865 H         1 ACP         0.4705
     34 H3B1        0.6371    6.4285   -0.3492 H         1 ACP         0.1189
     35 H3B2        0.6019    7.1260   -1.9657 H         1 ACP         0.1189
     36 HOA2       -3.9880    2.8465    0.3345 H         1 ACP         0.4679
     37 H5'1       -0.2031    3.2762    1.4777 H         1 ACP         0.0587
     38 H5'2       -1.7839    2.7764    2.1331 H         1 ACP         0.0587
     39 H4'         0.0402    1.7079    3.4342 H         1 ACP         0.0938
     40 H3'         1.5907    1.4859    1.1353 H         1 ACP         0.0597
     41 HO3'        2.6839   -0.1150    2.2479 H         1 ACP         0.4554
     42 H2'        -0.0017    0.0018    0.0005 H         1 ACP         0.0710
     43 HO2'        2.0953   -0.9375    0.0709 H         1 ACP         0.4360
     44 H1'        -0.1998   -1.6319    2.6178 H         1 ACP         0.1247
     45 H8         -0.6507   -3.2259    0.2692 H         1 ACP         0.0875
     46 HN61       -5.2868   -3.7791   -0.9150 H         1 ACP         0.4433
     47 HN62       -6.7619   -2.9208   -0.5594 H         1 ACP         0.4433
     48 H2         -5.4806    0.5898    2.1277 H         1 ACP         0.0459
@<TRIPOS>BOND
     1    1    2 2
     2    1    3 1
     3    1    4 1
     4    1    8 1
     5    3   32 1
     6    4   33 1
     7    5    6 2
     8    5    7 1
     9    5    8 1
    10    5   12 1
    11    8   34 1
    12    8   35 1
    13    9   10 2
    14    9   11 1
    15    9   12 1
    16    9   13 1
    17   11   36 1
    18   13   14 1
    19   14   15 1
    20   14   37 1
    21   14   38 1
    22   15   16 1
    23   15   17 1
    24   15   39 1
    25   16   21 1
    26   17   18 1
    27   17   19 1
    28   17   40 1
    29   18   41 1
    30   19   20 1
    31   19   21 1
    32   19   42 1
    33   20   43 1
    34   21   22 1
    35   21   44 1
    36   22   23 ar
    37   22   31 ar
    38   23   24 ar
    39   23   45 1
    40   24   25 ar
    41   25   26 ar
    42   25   31 ar
    43   26   27 1
    44   26   28 ar
    45   27   46 1
    46   27   47 1
    47   28   29 ar
    48   29   30 ar
    49   29   48 1
    50   30   31 ar
@<TRIPOS>SUBSTRUCTURE
     1 ACP         1 GROUP 0 A     ****
@<TRIPOS>MOLECULE
[[5-(6-aminopurin-9-yl)-3,4-dihydroxy-tetrahydrofuran-2-yl]methoxy-hydroxy-phosphoryl]oxy-(phosphonomethyl)phosphinate
   48    50     1     0     0
SMALL
USER_CHARGES

@<TRIPOS>ATOM
      1 PG          0.7016    6.5230    0.7996 P.3       1 ACP         1.6292
      2 O1G        -0.6960    6.4035    1.3288 O.2       1 ACP        -0.8674
      3 O2G         1.3068    8.0206    0.7659 O.3       1 ACP        -0.7977
      4 O3G         1.8210    5.6781    1.6013 O.3       1 ACP        -0.7977
      5 PB          0.5298    4.2205   -1.4255 P.3       1 ACP         1.4910
      6 O1B         1.4326    3.3099   -0.6258 O.co2     1 ACP        -0.8292
      7 O2B         0.5016    4.2028   -2.9363 O.co2     1 ACP        -0.8292
      8 C3B         0.9023    5.9558   -0.9046 C.3       1 ACP        -0.6453
      9 PA         -1.9903    2.8601   -0.7251 P.3       1 ACP         1.7996
     10 O1A        -2.3239    2.2013   -2.0321 O.2       1 ACP        -0.8588
     11 O2A        -3.2682    3.4570    0.0674 O.3       1 ACP        -0.8037
     12 O3A        -0.9912    4.1261   -0.8460 O.3       1 ACP        -0.7988
     13 O5'        -1.2435    1.9111    0.3519 O.3       1 ACP        -0.5960
     14 C5'        -0.8811    2.4285    1.6206 C.3       1 ACP         0.1917
     15 C4'        -0.1994    1.3333    2.4288 C.3       1 ACP         0.0908
     16 O4'        -1.1285    0.2356    2.5840 O.3       1 ACP        -0.4111
     17 C3'         1.0324    0.7610    1.7344 C.3       1 ACP         0.0927
     18 O3'         1.9175    0.2377    2.7247 O.3       1 ACP        -0.6127
     19 C2'         0.4468   -0.3802    0.9263 C.3       1 ACP         0.1095
     20 O2'         1.3993   -1.3703    0.5961 O.3       1 ACP        -0.5953
     21 C1'        -0.6159   -0.9100    1.8769 C.3       1 ACP         0.4273
     22 N9         -1.7127   -1.6108    1.2130 N.pl3     1 ACP        -0.6934
     23 C8         -1.6011   -2.7426    0.4497 C.ar      1 ACP         0.5422
     24 N7         -2.7657   -3.1449   -0.0147 N.2       1 ACP        -0.5596
     25 C5         -3.6708   -2.2337    0.4686 C.ar      1 ACP        -0.2259
     26 C6         -5.0501   -2.1167    0.3282 C.ar      1 ACP         0.7526
     27 N6         -5.7760   -3.0497   -0.4318 N.pl3     1 ACP        -0.9660
     28 N1         -5.6892   -1.0882    0.9359 N.ar      1 ACP        -0.8027
     29 C2         -4.9364   -0.2212    1.6553 C.ar      1 ACP         0.6758
     30 N3         -3.6016   -0.2290    1.8634 N.ar      1 ACP        -0.7221
     31 C4         -3.0352   -1.2703    1.2354 C.ar      1 ACP         0.5858
     32 HOG2        2.2178    8.1577    0.4290 H         1 ACP         0.4705
     33 HOG3        1.9682    5.8668    2.5526 H         1 ACP         0.4705
     34 H3B1        0.2768    6.5998   -1.5331 H         1 ACP         0.1189
     35 H3B2        1.9429    6.1413   -1.1942 H         1 ACP         0.1189
     36 HOA2       -3.9880    2.8465    0.3345 H         1 ACP         0.4679
     37 H5'1       -0.2031    3.2762    1.4777 H         1 ACP         0.0587
     38 H5'2       -1.7839    2.7764    2.1331 H         1 ACP         0.0587
     39 H4'         0.0402    1.7079    3.4342 H         1 ACP         0.0938
     40 H3'         1.5907    1.4859    1.1353 H         1 ACP         0.0597
     41 HO3'        2.6839   -0.1150    2.2479 H         1 ACP         0.4554
     42 H2'        -0.0017    0.0018    0.0005 H         1 ACP         0.0710
     43 HO2'        2.0953   -0.9375    0.0709 H         1 ACP         0.4360
     44 H1'        -0.1998   -1.6319    2.6178 H         1 ACP         0.1247
     45 H8         -0.6507   -3.2259    0.2692 H         1 ACP         0.0875
     46 HN61       -5.2868   -3.7791   -0.9150 H         1 ACP         0.4433
     47 HN62       -6.7619   -2.9208   -0.5594 H         1 ACP         0.4433
     48 H2         -5.4806    0.5898    2.1277 H         1 ACP         0.0459
@<TRIPOS>BOND
     1    1    2 2
     2    1    3 1
     3    1    4 1
     4    1    8 1
     5    3   32 1
     6    4   33 1
     7    5    6 2
     8    5    7 1
     9    5    8 1
    10    5   12 1
    11    8   34 1
    12    8   35 1
    13    9   10 2
    14    9   11 1
    15    9   12 1
    16    9   13 1
    17   11   36 1
    18   13   14 1
    19   14   15 1
    20   14   37 1
    21   14   38 1
    22   15   16 1
    23   15   17 1
    24   15   39 1
    25   16   21 1
    26   17   18 1
    27   17   19 1
    28   17   40 1
    29   18   41 1
    30   19   20 1
    31   19   21 1
    32   19   42 1
    33   20   43 1
    34   21   22 1
    35   21   44 1
    36   22   23 ar
    37   22   31 ar
    38   23   24 ar
    39   23   45 1
    40   24   25 ar
    41   25   26 ar
    42   25   31 ar
    43   26   27 1
    44   26   28 ar
    45   27   46 1
    46   27   47 1
    47   28   29 ar
    48   29   30 ar
    49   29   48 1
    50   30   31 ar
@<TRIPOS>SUBSTRUCTURE
     1 ACP         1 GROUP 0 A     ****
@<TRIPOS>MOLECULE
[[5-(6-aminopurin-9-yl)-3,4-dihydroxy-tetrahydrofuran-2-yl]methoxy-hydroxy-phosphoryl]oxy-(phosphonomethyl)phosphinate
   48    50     1     0     0
SMALL
USER_CHARGES

@<TRIPOS>ATOM
      1 PG          3.5000    4.4826   -4.4344 P.3       1 ACP         1.6292
      2 O1G         2.7313    4.3644   -3.1528 O.2       1 ACP        -0.8674
      3 O2G         2.6960    4.0568   -5.7695 O.3       1 ACP        -0.7977
      4 O3G         4.0519    5.9615   -4.7779 O.3       1 ACP        -0.7977
      5 PB          6.3814    3.6502   -3.2998 P.3       1 ACP         1.4910
      6 O1B         6.8972    5.0647   -3.4293 O.co2     1 ACP        -0.8292
      7 O2B         7.2804    2.4466   -3.4629 O.co2     1 ACP        -0.8292
      8 C3B         4.9902    3.4624   -4.5043 C.3       1 ACP        -0.6453
      9 PA          5.9543    3.7362   -0.3838 P.3       1 ACP         1.7996
     10 O1A         6.4427    5.1210   -0.0715 O.2       1 ACP        -0.8588
     11 O2A         7.0427    2.5687   -0.1198 O.3       1 ACP        -0.8037
     12 O3A         5.5174    3.5089   -1.9243 O.3       1 ACP        -0.7988
     13 O5'         4.6408    3.2691    0.4376 O.3       1 ACP        -0.5960
     14 C5'         4.0922    1.9801    0.2227 C.3       1 ACP         0.1917
     15 C4'         2.5944    2.0310    0.4653 C.3       1 ACP         0.0908
     16 O4'         1.9327    2.5740   -0.6889 O.3       1 ACP        -0.4111
     17 C3'         1.9685    0.6634    0.6767 C.3       1 ACP         0.0927
     18 O3'         2.1425    0.1975    1.9977 O.3       1 ACP        -0.6127
     19 C2'         0.5176    0.9128    0.3099 C.3       1 ACP         0.1095
     20 O2'        -0.2103    1.4454    1.4152 O.3       1 ACP        -0.5953
     21 C1'         0.6219    1.9765   -0.7844 C.3       1 ACP         0.4273
     22 N9          0.4237    1.4496   -2.1357 N.pl3     1 ACP        -0.6934
     23 C8         -0.5566    1.8304   -3.0133 C.ar      1 ACP         0.5422
     24 N7         -0.4788    1.1815   -4.1563 N.2       1 ACP        -0.5596
     25 C5          0.5985    0.3438   -4.0126 C.ar      1 ACP        -0.2259
     26 C6          1.1840   -0.5863   -4.8658 C.ar      1 ACP         0.7526
     27 N6          0.6656   -0.8050   -6.1536 N.pl3     1 ACP        -0.9660
     28 N1          2.2653   -1.2823   -4.4393 N.ar      1 ACP        -0.8027
     29 C2          2.7197   -1.0279   -3.1884 C.ar      1 ACP         0.6758
     30 N3          2.2404   -0.1568   -2.2739 N.ar      1 ACP        -0.7221
     31 C4          1.1743    0.4954   -2.7613 C.ar      1 ACP         0.5858
     32 HOG2        3.1505    4.1143   -6.6368 H         1 ACP         0.4705
     33 HOG3        3.4103    6.6964   -4.8802 H         1 ACP         0.4705
     34 H3B1        4.6678    2.4176   -4.4316 H         1 ACP         0.1189
     35 H3B2        5.4324    3.5911   -5.4988 H         1 ACP         0.1189
     36 HOA2        7.4004    2.4499    0.7858 H         1 ACP         0.4679
     37 H5'1        4.3024    1.6721   -0.8067 H         1 ACP         0.0587
     38 H5'2        4.5673    1.2730    0.9105 H         1 ACP         0.0587
     39 H4'         2.3752    2.7029    1.3156 H         1 ACP         0.0938
     40 H3'         2.4336   -0.1217   -0.0016 H         1 ACP         0.0597
     41 HO3'        1.7160   -0.6716    2.0397 H         1 ACP         0.4554
     42 H2'         0.0316    0.0155   -0.0339 H         1 ACP         0.0710
     43 HO2'       -0.1608    0.7921    2.1351 H         1 ACP         0.4360
     44 H1'        -0.1474    2.7798   -0.6651 H         1 ACP         0.1247
     45 H8         -1.2942    2.5813   -2.7649 H         1 ACP         0.0875
     46 HN61       -0.1624   -0.3184   -6.4408 H         1 ACP         0.4433
     47 HN62        1.0729   -1.5128   -6.7350 H         1 ACP         0.4433
     48 H2          3.5863   -1.6031   -2.8800 H         1 ACP         0.0459
@<TRIPOS>BOND
     1    1    2 2
     2    1    3 1
     3    1    4 1
     4    1    8 1
     5    3   32 1
     6    4   33 1
     7    5    6 2
     8    5    7 1
     9    5    8 1
    10    5   12 1
    11    8   34 1
    12    8   35 1
    13    9   10 2
    14    9   11 1
    15    9   12 1
    16    9   13 1
    17   11   36 1
    18   13   14 1
    19   14   15 1
    20   14   37 1
    21   14   38 1
    22   15   16 1
    23   15   17 1
    24   15   39 1
    25   16   21 1
    26   17   18 1
    27   17   19 1
    28   17   40 1
    29   18   41 1
    30   19   20 1
    31   19   21 1
    32   19   42 1
    33   20   43 1
    34   21   22 1
    35   21   44 1
    36   22   23 ar
    37   22   31 ar
    38   23   24 ar
    39   23   45 1
    40   24   25 ar
    41   25   26 ar
    42   25   31 ar
    43   26   27 1
    44   26   28 ar
    45   27   46 1
    46   27   47 1
    47   28   29 ar
    48   29   30 ar
    49   29   48 1
    50   30   31 ar
@<TRIPOS>SUBSTRUCTURE
     1 ACP         1 GROUP 0 A     ****
@<TRIPOS>MOLECULE
[[5-(6-aminopurin-9-yl)-3,4-dihydroxy-tetrahydrofuran-2-yl]methoxy-hydroxy-phosphoryl]oxy-(phosphonomethyl)phosphinate
   48    50     1     0     0
SMALL
USER_CHARGES

@<TRIPOS>ATOM
      1 PG          8.3264    0.6133   -3.7860 P.3       1 ACP         1.6292
      2 O1G         9.0293    1.5055   -4.7645 O.2       1 ACP        -0.8674
      3 O2G         8.3915   -0.9672   -4.1147 O.3       1 ACP        -0.7977
      4 O3G         8.8517    0.7069   -2.2612 O.3       1 ACP        -0.7977
      5 PB          5.8821    2.5666   -3.0839 P.3       1 ACP         1.4910
      6 O1B         4.3755    2.4501   -3.0751 O.co2     1 ACP        -0.8292
      7 O2B         6.6032    3.6336   -3.8744 O.co2     1 ACP        -0.8292
      8 C3B         6.5543    0.9319   -3.6294 C.3       1 ACP        -0.6453
      9 PA          6.1389    3.5429   -0.3138 P.3       1 ACP         1.7996
     10 O1A         6.5226    4.9737   -0.5571 O.2       1 ACP        -0.8588
     11 O2A         6.9057    2.8480    0.9299 O.3       1 ACP        -0.8037
     12 O3A         6.4393    2.5464   -1.5517 O.3       1 ACP        -0.7988
     13 O5'         4.5673    3.2930   -0.0211 O.3       1 ACP        -0.5960
     14 C5'         4.0922    1.9801    0.2227 C.3       1 ACP         0.1917
     15 C4'         2.5944    2.0310    0.4653 C.3       1 ACP         0.0908
     16 O4'         1.9327    2.5740   -0.6889 O.3       1 ACP        -0.4111
     17 C3'         1.9685    0.6634    0.6767 C.3       1 ACP         0.0927
     18 O3'         2.1425    0.1975    1.9977 O.3       1 ACP        -0.6127
     19 C2'         0.5176    0.9128    0.3099 C.3       1 ACP         0.1095
     20 O2'        -0.2103    1.4454    1.4152 O.3       1 ACP        -0.5953
     21 C1'         0.6219    1.9765   -0.7844 C.3       1 ACP         0.4273
     22 N9          0.4237    1.4496   -2.1357 N.pl3     1 ACP        -0.6934
     23 C8         -0.5566    1.8304   -3.0133 C.ar      1 ACP         0.5422
     24 N7         -0.4788    1.1815   -4.1563 N.2       1 ACP        -0.5596
     25 C5          0.5985    0.3438   -4.0126 C.ar      1 ACP        -0.2259
     26 C6          1.1840   -0.5863   -4.8658 C.ar      1 ACP         0.7526
     27 N6          0.6656   -0.8050   -6.1536 N.pl3     1 ACP        -0.9660
     28 N1          2.2653   -1.2823   -4.4393 N.ar      1 ACP        -0.8027
     29 C2          2.7197   -1.0279   -3.1884 C.ar      1 ACP         0.6758
     30 N3          2.2404   -0.1568   -2.2739 N.ar      1 ACP        -0.7221
     31 C4          1.1743    0.4954   -2.7613 C.ar      1 ACP         0.5858
     32 HOG2        9.2671   -1.4064   -4.1660 H         1 ACP         0.4705
     33 HOG3        8.4283    0.1454   -1.5772 H         1 ACP         0.4705
     34 H3B1        6.1045    0.7329   -4.6087 H         1 ACP         0.1189
     35 H3B2        6.1454    0.1900   -2.9341 H         1 ACP         0.1189
     36 HOA2        6.8017    3.2332    1.8260 H         1 ACP         0.4679
     37 H5'1        4.3175    1.3541   -0.6468 H         1 ACP         0.0587
     38 H5'2        4.6079    1.5730    1.0985 H         1 ACP         0.0587
     39 H4'         2.3752    2.7029    1.3156 H         1 ACP         0.0938
     40 H3'         2.4336   -0.1217   -0.0016 H         1 ACP         0.0597
     41 HO3'        1.7160   -0.6716    2.0397 H         1 ACP         0.4554
     42 H2'         0.0316    0.0155   -0.0339 H         1 ACP         0.0710
     43 HO2'       -0.1608    0.7921    2.1351 H         1 ACP         0.4360
     44 H1'        -0.1474    2.7798   -0.6651 H         1 ACP         0.1247
     45 H8         -1.2942    2.5813   -2.7649 H         1 ACP         0.0875
     46 HN61       -0.1624   -0.3184   -6.4408 H         1 ACP         0.4433
     47 HN62        1.0729   -1.5128   -6.7350 H         1 ACP         0.4433
     48 H2          3.5863   -1.6031   -2.8800 H         1 ACP         0.0459
@<TRIPOS>BOND
     1    1    2 2
     2    1    3 1
     3    1    4 1
     4    1    8 1
     5    3   32 1
     6    4   33 1
     7    5    6 2
     8    5    7 1
     9    5    8 1
    10    5   12 1
    11    8   34 1
    12    8   35 1
    13    9   10 2
    14    9   11 1
    15    9   12 1
    16    9   13 1
    17   11   36 1
    18   13   14 1
    19   14   15 1
    20   14   37 1
    21   14   38 1
    22   15   16 1
    23   15   17 1
    24   15   39 1
    25   16   21 1
    26   17   18 1
    27   17   19 1
    28   17   40 1
    29   18   41 1
    30   19   20 1
    31   19   21 1
    32   19   42 1
    33   20   43 1
    34   21   22 1
    35   21   44 1
    36   22   23 ar
    37   22   31 ar
    38   23   24 ar
    39   23   45 1
    40   24   25 ar
    41   25   26 ar
    42   25   31 ar
    43   26   27 1
    44   26   28 ar
    45   27   46 1
    46   27   47 1
    47   28   29 ar
    48   29   30 ar
    49   29   48 1
    50   30   31 ar
@<TRIPOS>SUBSTRUCTURE
     1 ACP         1 GROUP 0 A     ****
@<TRIPOS>MOLECULE
[[5-(6-aminopurin-9-yl)-3,4-dihydroxy-tetrahydrofuran-2-yl]methoxy-hydroxy-phosphoryl]oxy-(phosphonomethyl)phosphinate
   48    50     1     0     0
SMALL
USER_CHARGES

@<TRIPOS>ATOM
      1 PG          9.1001    5.2581    0.0160 P.3       1 ACP         1.6292
      2 O1G         9.4235    6.2714   -1.0404 O.2       1 ACP        -0.8674
      3 O2G         9.3109    3.7148   -0.4129 O.3       1 ACP        -0.7977
      4 O3G         9.9453    5.3912    1.3862 O.3       1 ACP        -0.7977
      5 PB          6.7407    4.1500    1.8836 P.3       1 ACP         1.4910
      6 O1B         5.2816    4.4838    2.0918 O.co2     1 ACP        -0.8292
      7 O2B         7.7376    4.1518    3.0192 O.co2     1 ACP        -0.8292
      8 C3B         7.3856    5.2999    0.5862 C.3       1 ACP        -0.6453
      9 PA          6.3383    1.2707    1.3934 P.3       1 ACP         1.7996
     10 O1A         6.8983    0.6915    2.6601 O.2       1 ACP        -0.8588
     11 O2A         6.6824    0.4202    0.0609 O.3       1 ACP        -0.8037
     12 O3A         6.8669    2.7585    1.0432 O.3       1 ACP        -0.7988
     13 O5'         4.7297    1.4430    1.3689 O.3       1 ACP        -0.5960
     14 C5'         4.0922    1.9801    0.2227 C.3       1 ACP         0.1917
     15 C4'         2.5944    2.0310    0.4653 C.3       1 ACP         0.0908
     16 O4'         1.9327    2.5740   -0.6889 O.3       1 ACP        -0.4111
     17 C3'         1.9685    0.6634    0.6767 C.3       1 ACP         0.0927
     18 O3'         2.1425    0.1975    1.9977 O.3       1 ACP        -0.6127
     19 C2'         0.5176    0.9128    0.3099 C.3       1 ACP         0.1095
     20 O2'        -0.2103    1.4454    1.4152 O.3       1 ACP        -0.5953
     21 C1'         0.6219    1.9765   -0.7844 C.3       1 ACP         0.4273
     22 N9          0.4237    1.4496   -2.1357 N.pl3     1 ACP        -0.6934
     23 C8         -0.7736    1.3475   -2.7932 C.ar      1 ACP         0.5422
     24 N7         -0.6356    0.8373   -3.9991 N.2       1 ACP        -0.5596
     25 C5          0.7095    0.5981   -4.1281 C.ar      1 ACP        -0.2259
     26 C6          1.4733    0.0704   -5.1643 C.ar      1 ACP         0.7526
     27 N6          0.8693   -0.3355   -6.3666 N.pl3     1 ACP        -0.9660
     28 N1          2.8130   -0.0482   -5.0009 N.ar      1 ACP        -0.8027
     29 C2          3.3380    0.3602   -3.8204 C.ar      1 ACP         0.6758
     30 N3          2.7052    0.8841   -2.7480 N.ar      1 ACP        -0.7221
     31 C4          1.3867    0.9726   -2.9785 C.ar      1 ACP         0.5858
     32 HOG2        9.1145    3.0090    0.2393 H         1 ACP         0.4705
     33 HOG3       10.9227    5.3144    1.3513 H         1 ACP         0.4705
     34 H3B1        7.1962    6.3124    0.9600 H         1 ACP         0.1189
     35 H3B2        6.7425    5.1580   -0.2898 H         1 ACP         0.1189
     36 HOA2        6.3789   -0.5107    0.0009 H         1 ACP         0.4679
     37 H5'1        4.4838    2.9857    0.0374 H         1 ACP         0.0587
     38 H5'2        4.3186    1.3449   -0.6398 H         1 ACP         0.0587
     39 H4'         2.3752    2.7029    1.3156 H         1 ACP         0.0938
     40 H3'         2.4336   -0.1217   -0.0016 H         1 ACP         0.0597
     41 HO3'        3.0987    0.1465    2.1461 H         1 ACP         0.4554
     42 H2'         0.0316    0.0155   -0.0339 H         1 ACP         0.0710
     43 HO2'       -0.1608    0.7921    2.1351 H         1 ACP         0.4360
     44 H1'        -0.1474    2.7798   -0.6651 H         1 ACP         0.1247
     45 H8         -1.7070    1.6599   -2.3451 H         1 ACP         0.0875
     46 HN61       -0.1277   -0.2866   -6.4583 H         1 ACP         0.4433
     47 HN62        1.4308   -0.7566   -7.0823 H         1 ACP         0.4433
     48 H2          4.4130    0.2505   -3.7241 H         1 ACP         0.0459
@<TRIPOS>BOND
     1    1    2 2
     2    1    3 1
     3    1    4 1
     4    1    8 1
     5    3   32 1
     6    4   33 1
     7    5    6 2
     8    5    7 1
     9    5    8 1
    10    5   12 1
    11    8   34 1
    12    8   35 1
    13    9   10 2
    14    9   11 1
    15    9   12 1
    16    9   13 1
    17   11   36 1
    18   13   14 1
    19   14   15 1
    20   14   37 1
    21   14   38 1
    22   15   16 1
    23   15   17 1
    24   15   39 1
    25   16   21 1
    26   17   18 1
    27   17   19 1
    28   17   40 1
    29   18   41 1
    30   19   20 1
    31   19   21 1
    32   19   42 1
    33   20   43 1
    34   21   22 1
    35   21   44 1
    36   22   23 ar
    37   22   31 ar
    38   23   24 ar
    39   23   45 1
    40   24   25 ar
    41   25   26 ar
    42   25   31 ar
    43   26   27 1
    44   26   28 ar
    45   27   46 1
    46   27   47 1
    47   28   29 ar
    48   29   30 ar
    49   29   48 1
    50   30   31 ar
@<TRIPOS>SUBSTRUCTURE
     1 ACP         1 GROUP 0 A     ****
@<TRIPOS>MOLECULE
[[5-(6-aminopurin-9-yl)-3,4-dihydroxy-tetrahydrofuran-2-yl]methoxy-hydroxy-phosphoryl]oxy-(phosphonomethyl)phosphinate
   48    50     1     0     0
SMALL
USER_CHARGES

@<TRIPOS>ATOM
      1 PG          6.3123   -0.3838   -3.4721 P.3       1 ACP         1.6292
      2 O1G         5.0978   -0.3199   -2.5955 O.2       1 ACP        -0.8674
      3 O2G         7.4957   -1.3525   -2.9513 O.3       1 ACP        -0.7977
      4 O3G         6.0493   -0.8840   -4.9855 O.3       1 ACP        -0.7977
      5 PB          7.8432    2.1753   -2.2932 P.3       1 ACP         1.4910
      6 O1B         8.4548    3.4294   -2.8736 O.co2     1 ACP        -0.8292
      7 O2B         8.6345    1.2155   -1.4352 O.co2     1 ACP        -0.8292
      8 C3B         7.1462    1.2028   -3.7038 C.3       1 ACP        -0.6453
      9 PA          6.1389    3.5429   -0.3138 P.3       1 ACP         1.7996
     10 O1A         6.5226    4.9737   -0.5571 O.2       1 ACP        -0.8588
     11 O2A         6.9057    2.8480    0.9299 O.3       1 ACP        -0.8037
     12 O3A         6.4393    2.5464   -1.5517 O.3       1 ACP        -0.7988
     13 O5'         4.5673    3.2930   -0.0211 O.3       1 ACP        -0.5960
     14 C5'         4.0922    1.9801    0.2227 C.3       1 ACP         0.1917
     15 C4'         2.5944    2.0310    0.4653 C.3       1 ACP         0.0908
     16 O4'         1.9327    2.5740   -0.6889 O.3       1 ACP        -0.4111
     17 C3'         1.9685    0.6634    0.6767 C.3       1 ACP         0.0927
     18 O3'         2.1425    0.1975    1.9977 O.3       1 ACP        -0.6127
     19 C2'         0.5176    0.9128    0.3099 C.3       1 ACP         0.1095
     20 O2'        -0.2103    1.4454    1.4152 O.3       1 ACP        -0.5953
     21 C1'         0.6219    1.9765   -0.7844 C.3       1 ACP         0.4273
     22 N9          0.4237    1.4496   -2.1357 N.pl3     1 ACP        -0.6934
     23 C8         -0.6990    0.8143   -2.5962 C.ar      1 ACP         0.5422
     24 N7         -0.5842    0.4561   -3.8580 N.2       1 ACP        -0.5596
     25 C5          0.6674    0.8775   -4.2308 C.ar      1 ACP        -0.2259
     26 C6          1.3671    0.7929   -5.4304 C.ar      1 ACP         0.7526
     27 N6          0.7907    0.1795   -6.5558 N.pl3     1 ACP        -0.9660
     28 N1          2.6167    1.3114   -5.5022 N.ar      1 ACP        -0.8027
     29 C2          3.1190    1.8905   -4.3849 C.ar      1 ACP         0.6758
     30 N3          2.5420    2.0322   -3.1717 N.ar      1 ACP        -0.7221
     31 C4          1.3113    1.4986   -3.1725 C.ar      1 ACP         0.5858
     32 HOG2        8.3143   -1.4326   -3.4859 H         1 ACP         0.4705
     33 HOG3        5.6700   -1.7767   -5.1320 H         1 ACP         0.4705
     34 H3B1        7.9814    1.0290   -4.3917 H         1 ACP         0.1189
     35 H3B2        6.4458    1.8726   -4.2155 H         1 ACP         0.1189
     36 HOA2        7.8845    2.7870    0.9092 H         1 ACP         0.4679
     37 H5'1        4.3175    1.3541   -0.6468 H         1 ACP         0.0587
     38 H5'2        4.6079    1.5730    1.0985 H         1 ACP         0.0587
     39 H4'         2.3752    2.7029    1.3156 H         1 ACP         0.0938
     40 H3'         2.4336   -0.1217   -0.0016 H         1 ACP         0.0597
     41 HO3'        3.0987    0.1465    2.1461 H         1 ACP         0.4554
     42 H2'         0.0316    0.0155   -0.0339 H         1 ACP         0.0710
     43 HO2'       -1.1270    1.5823    1.1180 H         1 ACP         0.4360
     44 H1'        -0.1474    2.7798   -0.6651 H         1 ACP         0.1247
     45 H8         -1.5636    0.6429   -1.9696 H         1 ACP         0.0875
     46 HN61       -0.1155   -0.2418   -6.4776 H         1 ACP         0.4433
     47 HN62        1.3291    0.0869   -7.3963 H         1 ACP         0.4433
     48 H2          4.1215    2.2946   -4.4783 H         1 ACP         0.0459
@<TRIPOS>BOND
     1    1    2 2
     2    1    3 1
     3    1    4 1
     4    1    8 1
     5    3   32 1
     6    4   33 1
     7    5    6 2
     8    5    7 1
     9    5    8 1
    10    5   12 1
    11    8   34 1
    12    8   35 1
    13    9   10 2
    14    9   11 1
    15    9   12 1
    16    9   13 1
    17   11   36 1
    18   13   14 1
    19   14   15 1
    20   14   37 1
    21   14   38 1
    22   15   16 1
    23   15   17 1
    24   15   39 1
    25   16   21 1
    26   17   18 1
    27   17   19 1
    28   17   40 1
    29   18   41 1
    30   19   20 1
    31   19   21 1
    32   19   42 1
    33   20   43 1
    34   21   22 1
    35   21   44 1
    36   22   23 ar
    37   22   31 ar
    38   23   24 ar
    39   23   45 1
    40   24   25 ar
    41   25   26 ar
    42   25   31 ar
    43   26   27 1
    44   26   28 ar
    45   27   46 1
    46   27   47 1
    47   28   29 ar
    48   29   30 ar
    49   29   48 1
    50   30   31 ar
@<TRIPOS>SUBSTRUCTURE
     1 ACP         1 GROUP 0 A     ****
@<TRIPOS>MOLECULE
[[5-(6-aminopurin-9-yl)-3,4-dihydroxy-tetrahydrofuran-2-yl]methoxy-hydroxy-phosphoryl]oxy-(phosphonomethyl)phosphinate
   48    50     1     0     0
SMALL
USER_CHARGES

@<TRIPOS>ATOM
      1 PG          3.0948    5.0179    0.3339 P.3       1 ACP         1.6292
      2 O1G         2.4438    4.2018    1.4098 O.2       1 ACP        -0.8674
      3 O2G         2.8372    6.6107    0.4172 O.3       1 ACP        -0.7977
      4 O3G         4.7035    4.8964    0.2491 O.3       1 ACP        -0.7977
      5 PB          0.8009    4.7298   -1.8882 P.3       1 ACP         1.4910
      6 O1B         0.7482    4.2990   -3.3357 O.co2     1 ACP        -0.8292
      7 O2B         0.2886    6.0752   -1.4288 O.co2     1 ACP        -0.8292
      8 C3B         2.5632    4.5986   -1.3418 C.3       1 ACP        -0.6453
      9 PA         -1.2967    2.8900   -0.9354 P.3       1 ACP         1.7996
     10 O1A        -1.6931    2.2285   -2.2234 O.2       1 ACP        -0.8588
     11 O2A        -2.2602    4.1096   -0.4866 O.3       1 ACP        -0.8037
     12 O3A         0.1782    3.5535   -0.9465 O.3       1 ACP        -0.7988
     13 O5'        -1.2435    1.9111    0.3519 O.3       1 ACP        -0.5960
     14 C5'        -0.8811    2.4285    1.6206 C.3       1 ACP         0.1917
     15 C4'        -0.1994    1.3333    2.4288 C.3       1 ACP         0.0908
     16 O4'        -1.1285    0.2356    2.5840 O.3       1 ACP        -0.4111
     17 C3'         1.0324    0.7610    1.7344 C.3       1 ACP         0.0927
     18 O3'         1.9175    0.2377    2.7247 O.3       1 ACP        -0.6127
     19 C2'         0.4468   -0.3802    0.9263 C.3       1 ACP         0.1095
     20 O2'         1.3993   -1.3703    0.5961 O.3       1 ACP        -0.5953
     21 C1'        -0.6159   -0.9100    1.8769 C.3       1 ACP         0.4273
     22 N9         -1.7127   -1.6108    1.2130 N.pl3     1 ACP        -0.6934
     23 C8         -1.7712   -2.9546    0.9544 C.ar      1 ACP         0.5422
     24 N7         -2.8883   -3.2948    0.3462 N.2       1 ACP        -0.5596
     25 C5         -3.5834   -2.1202    0.2043 C.ar      1 ACP        -0.2259
     26 C6         -4.8225   -1.8251   -0.3554 C.ar      1 ACP         0.7526
     27 N6         -5.6154   -2.8394   -0.9189 N.pl3     1 ACP        -0.9660
     28 N1         -5.2589   -0.5425   -0.3507 N.ar      1 ACP        -0.8027
     29 C2         -4.4510    0.3913    0.2069 C.ar      1 ACP         0.6758
     30 N3         -3.2368    0.2296    0.7767 N.ar      1 ACP        -0.7221
     31 C4         -2.8684   -1.0596    0.7376 C.ar      1 ACP         0.5858
     32 HOG2        3.2394    7.1934   -0.2616 H         1 ACP         0.4705
     33 HOG3        5.2414    5.1559    1.0273 H         1 ACP         0.4705
     34 H3B1        3.1392    5.2290   -2.0286 H         1 ACP         0.1189
     35 H3B2        2.8625    3.5619   -1.5337 H         1 ACP         0.1189
     36 HOA2       -3.2114    3.9290   -0.3288 H         1 ACP         0.4679
     37 H5'1       -0.2031    3.2762    1.4777 H         1 ACP         0.0587
     38 H5'2       -1.7839    2.7764    2.1331 H         1 ACP         0.0587
     39 H4'         0.0402    1.7079    3.4342 H         1 ACP         0.0938
     40 H3'         1.5907    1.4859    1.1353 H         1 ACP         0.0597
     41 HO3'        2.6839   -0.1150    2.2479 H         1 ACP         0.4554
     42 H2'        -0.0017    0.0018    0.0005 H         1 ACP         0.0710
     43 HO2'        2.0953   -0.9375    0.0709 H         1 ACP         0.4360
     44 H1'        -0.1998   -1.6319    2.6178 H         1 ACP         0.1247
     45 H8         -0.9745   -3.6312    1.2318 H         1 ACP         0.0875
     46 HN61       -5.2619   -3.7766   -0.9586 H         1 ACP         0.4433
     47 HN62       -6.4834   -2.5990   -1.3590 H         1 ACP         0.4433
     48 H2         -4.8317    1.4071    0.1930 H         1 ACP         0.0459
@<TRIPOS>BOND
     1    1    2 2
     2    1    3 1
     3    1    4 1
     4    1    8 1
     5    3   32 1
     6    4   33 1
     7    5    6 2
     8    5    7 1
     9    5    8 1
    10    5   12 1
    11    8   34 1
    12    8   35 1
    13    9   10 2
    14    9   11 1
    15    9   12 1
    16    9   13 1
    17   11   36 1
    18   13   14 1
    19   14   15 1
    20   14   37 1
    21   14   38 1
    22   15   16 1
    23   15   17 1
    24   15   39 1
    25   16   21 1
    26   17   18 1
    27   17   19 1
    28   17   40 1
    29   18   41 1
    30   19   20 1
    31   19   21 1
    32   19   42 1
    33   20   43 1
    34   21   22 1
    35   21   44 1
    36   22   23 ar
    37   22   31 ar
    38   23   24 ar
    39   23   45 1
    40   24   25 ar
    41   25   26 ar
    42   25   31 ar
    43   26   27 1
    44   26   28 ar
    45   27   46 1
    46   27   47 1
    47   28   29 ar
    48   29   30 ar
    49   29   48 1
    50   30   31 ar
@<TRIPOS>SUBSTRUCTURE
     1 ACP         1 GROUP 0 A     ****
@<TRIPOS>MOLECULE
[[5-(6-aminopurin-9-yl)-3,4-dihydroxy-tetrahydrofuran-2-yl]methoxy-hydroxy-phosphoryl]oxy-(phosphonomethyl)phosphinate
   48    50     1     0     0
SMALL
USER_CHARGES

@<TRIPOS>ATOM
      1 PG          8.0177    1.3504   -3.3123 P.3       1 ACP         1.6292
      2 O1G         6.5487    1.6470   -3.3530 O.2       1 ACP        -0.8674
      3 O2G         8.4885    0.0519   -4.1502 O.3       1 ACP        -0.7977
      4 O3G         8.9780    2.5273   -3.8625 O.3       1 ACP        -0.7977
      5 PB          8.5731    2.2823   -0.2947 P.3       1 ACP         1.4910
      6 O1B         9.3296    3.5056   -0.7580 O.co2     1 ACP        -0.8292
      7 O2B         8.9090    1.5672    0.9935 O.co2     1 ACP        -0.8292
      8 C3B         8.6664    1.0330   -1.6555 C.3       1 ACP        -0.6453
      9 PA          6.0788    3.6958    0.3928 P.3       1 ACP         1.7996
     10 O1A         6.4678    5.1128    0.0855 O.2       1 ACP        -0.8588
     11 O2A         6.1996    3.2939    1.9553 O.3       1 ACP        -0.8037
     12 O3A         6.9706    2.5756   -0.3591 O.3       1 ACP        -0.7988
     13 O5'         4.5673    3.2930   -0.0211 O.3       1 ACP        -0.5960
     14 C5'         4.0922    1.9801    0.2227 C.3       1 ACP         0.1917
     15 C4'         2.5944    2.0310    0.4653 C.3       1 ACP         0.0908
     16 O4'         1.9327    2.5740   -0.6889 O.3       1 ACP        -0.4111
     17 C3'         1.9685    0.6634    0.6767 C.3       1 ACP         0.0927
     18 O3'         2.1425    0.1975    1.9977 O.3       1 ACP        -0.6127
     19 C2'         0.5176    0.9128    0.3099 C.3       1 ACP         0.1095
     20 O2'        -0.2103    1.4454    1.4152 O.3       1 ACP        -0.5953
     21 C1'         0.6219    1.9765   -0.7844 C.3       1 ACP         0.4273
     22 N9          0.4237    1.4496   -2.1357 N.pl3     1 ACP        -0.6934
     23 C8         -0.7736    1.3475   -2.7932 C.ar      1 ACP         0.5422
     24 N7         -0.6356    0.8373   -3.9991 N.2       1 ACP        -0.5596
     25 C5          0.7095    0.5981   -4.1281 C.ar      1 ACP        -0.2259
     26 C6          1.4733    0.0704   -5.1643 C.ar      1 ACP         0.7526
     27 N6          0.8693   -0.3355   -6.3666 N.pl3     1 ACP        -0.9660
     28 N1          2.8130   -0.0482   -5.0009 N.ar      1 ACP        -0.8027
     29 C2          3.3380    0.3602   -3.8204 C.ar      1 ACP         0.6758
     30 N3          2.7052    0.8841   -2.7480 N.ar      1 ACP        -0.7221
     31 C4          1.3867    0.9726   -2.9785 C.ar      1 ACP         0.5858
     32 HOG2        8.3234    0.0242   -5.1167 H         1 ACP         0.4705
     33 HOG3        9.9491    2.3886   -3.8598 H         1 ACP         0.4705
     34 H3B1        8.1590    0.1379   -1.2781 H         1 ACP         0.1189
     35 H3B2        9.7273    0.7781   -1.7594 H         1 ACP         0.1189
     36 HOA2        5.6689    3.7896    2.6148 H         1 ACP         0.4679
     37 H5'1        4.3175    1.3541   -0.6468 H         1 ACP         0.0587
     38 H5'2        4.6079    1.5730    1.0985 H         1 ACP         0.0587
     39 H4'         2.3752    2.7029    1.3156 H         1 ACP         0.0938
     40 H3'         2.4336   -0.1217   -0.0016 H         1 ACP         0.0597
     41 HO3'        1.7160   -0.6716    2.0397 H         1 ACP         0.4554
     42 H2'         0.0316    0.0155   -0.0339 H         1 ACP         0.0710
     43 HO2'       -0.1608    0.7921    2.1351 H         1 ACP         0.4360
     44 H1'        -0.1474    2.7798   -0.6651 H         1 ACP         0.1247
     45 H8         -1.7070    1.6599   -2.3451 H         1 ACP         0.0875
     46 HN61       -0.1277   -0.2866   -6.4583 H         1 ACP         0.4433
     47 HN62        1.4308   -0.7566   -7.0823 H         1 ACP         0.4433
     48 H2          4.4130    0.2505   -3.7241 H         1 ACP         0.0459
@<TRIPOS>BOND
     1    1    2 2
     2    1    3 1
     3    1    4 1
     4    1    8 1
     5    3   32 1
     6    4   33 1
     7    5    6 2
     8    5    7 1
     9    5    8 1
    10    5   12 1
    11    8   34 1
    12    8   35 1
    13    9   10 2
    14    9   11 1
    15    9   12 1
    16    9   13 1
    17   11   36 1
    18   13   14 1
    19   14   15 1
    20   14   37 1
    21   14   38 1
    22   15   16 1
    23   15   17 1
    24   15   39 1
    25   16   21 1
    26   17   18 1
    27   17   19 1
    28   17   40 1
    29   18   41 1
    30   19   20 1
    31   19   21 1
    32   19   42 1
    33   20   43 1
    34   21   22 1
    35   21   44 1
    36   22   23 ar
    37   22   31 ar
    38   23   24 ar
    39   23   45 1
    40   24   25 ar
    41   25   26 ar
    42   25   31 ar
    43   26   27 1
    44   26   28 ar
    45   27   46 1
    46   27   47 1
    47   28   29 ar
    48   29   30 ar
    49   29   48 1
    50   30   31 ar
@<TRIPOS>SUBSTRUCTURE
     1 ACP         1 GROUP 0 A     ****
@<TRIPOS>MOLECULE
[[5-(6-aminopurin-9-yl)-3,4-dihydroxy-tetrahydrofuran-2-yl]methoxy-hydroxy-phosphoryl]oxy-(phosphonomethyl)phosphinate
   48    50     1     0     0
SMALL
USER_CHARGES

@<TRIPOS>ATOM
      1 PG         -5.2250    3.4645    1.6537 P.3       1 ACP         1.6292
      2 O1G        -4.9387    2.2027    2.4109 O.2       1 ACP        -0.8674
      3 O2G        -4.5016    3.5913    0.2147 O.3       1 ACP        -0.7977
      4 O3G        -6.7827    3.7356    1.3219 O.3       1 ACP        -0.7977
      5 PB         -2.9637    5.3042    2.9895 P.3       1 ACP         1.4910
      6 O1B        -2.5408    4.1942    3.9236 O.co2     1 ACP        -0.8292
      7 O2B        -2.8716    6.7620    3.3766 O.co2     1 ACP        -0.8292
      8 C3B        -4.7188    4.9750    2.5072 C.3       1 ACP        -0.6453
      9 PA         -0.7171    5.0024    1.1041 P.3       1 ACP         1.7996
     10 O1A         0.0755    6.2388    1.4152 O.2       1 ACP        -0.8588
     11 O2A        -0.7678    4.6191   -0.4668 O.3       1 ACP        -0.8037
     12 O3A        -2.2759    5.0787    1.5285 O.3       1 ACP        -0.7988
     13 O5'        -0.2069    3.6554    1.8412 O.3       1 ACP        -0.5960
     14 C5'        -0.8811    2.4285    1.6206 C.3       1 ACP         0.1917
     15 C4'        -0.1994    1.3333    2.4288 C.3       1 ACP         0.0908
     16 O4'        -1.1285    0.2356    2.5840 O.3       1 ACP        -0.4111
     17 C3'         1.0324    0.7610    1.7344 C.3       1 ACP         0.0927
     18 O3'         1.9175    0.2377    2.7247 O.3       1 ACP        -0.6127
     19 C2'         0.4468   -0.3802    0.9263 C.3       1 ACP         0.1095
     20 O2'         1.3993   -1.3703    0.5961 O.3       1 ACP        -0.5953
     21 C1'        -0.6159   -0.9100    1.8769 C.3       1 ACP         0.4273
     22 N9         -1.7127   -1.6108    1.2130 N.pl3     1 ACP        -0.6934
     23 C8         -1.6230   -2.3308    0.0513 C.ar      1 ACP         0.5422
     24 N7         -2.7800   -2.8517   -0.3004 N.2       1 ACP        -0.5596
     25 C5         -3.6574   -2.4511    0.6758 C.ar      1 ACP        -0.2259
     26 C6         -5.0170   -2.6775    0.8654 C.ar      1 ACP         0.7526
     27 N6         -5.7504   -3.4510   -0.0504 N.pl3     1 ACP        -0.9660
     28 N1         -5.6292   -2.1415    1.9486 N.ar      1 ACP        -0.8027
     29 C2         -4.8703   -1.4055    2.7961 C.ar      1 ACP         0.6758
     30 N3         -3.5527   -1.1170    2.7199 N.ar      1 ACP        -0.7221
     31 C4         -3.0124   -1.6774    1.6275 C.ar      1 ACP         0.5858
     32 HOG2       -3.5219    3.5709    0.1716 H         1 ACP         0.4705
     33 HOG3       -7.2744    3.0813    0.7811 H         1 ACP         0.4705
     34 H3B1       -5.0206    5.8176    1.8749 H         1 ACP         0.1189
     35 H3B2       -5.3040    5.0442    3.4313 H         1 ACP         0.1189
     36 HOA2        0.0730    4.4355   -0.9374 H         1 ACP         0.4679
     37 H5'1       -1.9259    2.5372    1.9293 H         1 ACP         0.0587
     38 H5'2       -0.8477    2.1923    0.5521 H         1 ACP         0.0587
     39 H4'         0.0402    1.7079    3.4342 H         1 ACP         0.0938
     40 H3'         1.5907    1.4859    1.1353 H         1 ACP         0.0597
     41 HO3'        2.6839   -0.1150    2.2479 H         1 ACP         0.4554
     42 H2'        -0.0017    0.0018    0.0005 H         1 ACP         0.0710
     43 HO2'        2.0953   -0.9375    0.0709 H         1 ACP         0.4360
     44 H1'        -0.1998   -1.6319    2.6178 H         1 ACP         0.1247
     45 H8         -0.6932   -2.4401   -0.4900 H         1 ACP         0.0875
     46 HN61       -5.2972   -3.8032   -0.8723 H         1 ACP         0.4433
     47 HN62       -6.7381   -3.5629    0.0791 H         1 ACP         0.4433
     48 H2         -5.3929   -0.9917    3.6520 H         1 ACP         0.0459
@<TRIPOS>BOND
     1    1    2 2
     2    1    3 1
     3    1    4 1
     4    1    8 1
     5    3   32 1
     6    4   33 1
     7    5    6 2
     8    5    7 1
     9    5    8 1
    10    5   12 1
    11    8   34 1
    12    8   35 1
    13    9   10 2
    14    9   11 1
    15    9   12 1
    16    9   13 1
    17   11   36 1
    18   13   14 1
    19   14   15 1
    20   14   37 1
    21   14   38 1
    22   15   16 1
    23   15   17 1
    24   15   39 1
    25   16   21 1
    26   17   18 1
    27   17   19 1
    28   17   40 1
    29   18   41 1
    30   19   20 1
    31   19   21 1
    32   19   42 1
    33   20   43 1
    34   21   22 1
    35   21   44 1
    36   22   23 ar
    37   22   31 ar
    38   23   24 ar
    39   23   45 1
    40   24   25 ar
    41   25   26 ar
    42   25   31 ar
    43   26   27 1
    44   26   28 ar
    45   27   46 1
    46   27   47 1
    47   28   29 ar
    48   29   30 ar
    49   29   48 1
    50   30   31 ar
@<TRIPOS>SUBSTRUCTURE
     1 ACP         1 GROUP 0 A     ****
@<TRIPOS>MOLECULE
[[5-(6-aminopurin-9-yl)-3,4-dihydroxy-tetrahydrofuran-2-yl]methoxy-hydroxy-phosphoryl]oxy-(phosphonomethyl)phosphinate
   48    50     1     0     0
SMALL
USER_CHARGES

@<TRIPOS>ATOM
      1 PG         -5.0957    4.6918    0.4882 P.3       1 ACP         1.6292
      2 O1G        -4.4473    3.6268    1.3205 O.2       1 ACP        -0.8674
      3 O2G        -5.6884    4.2001   -0.9320 O.3       1 ACP        -0.7977
      4 O3G        -6.3442    5.4483    1.1803 O.3       1 ACP        -0.7977
      5 PB         -2.4537    5.7923   -0.9579 P.3       1 ACP         1.4910
      6 O1B        -1.8060    7.1457   -1.1382 O.co2     1 ACP        -0.8292
      7 O2B        -2.8158    4.9098   -2.1298 O.co2     1 ACP        -0.8292
      8 C3B        -3.9955    6.0508    0.0308 C.3       1 ACP        -0.6453
      9 PA         -0.0715    4.4469    0.1409 P.3       1 ACP         1.7996
     10 O1A         0.9309    5.5629    0.0817 O.2       1 ACP        -0.8588
     11 O2A         0.0046    3.4141   -1.1020 O.3       1 ACP        -0.8037
     12 O3A        -1.6152    4.9291    0.1422 O.3       1 ACP        -0.7988
     13 O5'         0.0170    3.5129    1.4593 O.3       1 ACP        -0.5960
     14 C5'        -0.8811    2.4285    1.6206 C.3       1 ACP         0.1917
     15 C4'        -0.1994    1.3333    2.4288 C.3       1 ACP         0.0908
     16 O4'        -1.1285    0.2356    2.5840 O.3       1 ACP        -0.4111
     17 C3'         1.0324    0.7610    1.7344 C.3       1 ACP         0.0927
     18 O3'         1.9175    0.2377    2.7247 O.3       1 ACP        -0.6127
     19 C2'         0.4468   -0.3802    0.9263 C.3       1 ACP         0.1095
     20 O2'         1.3993   -1.3703    0.5961 O.3       1 ACP        -0.5953
     21 C1'        -0.6159   -0.9100    1.8769 C.3       1 ACP         0.4273
     22 N9         -1.7127   -1.6108    1.2130 N.pl3     1 ACP        -0.6934
     23 C8         -1.6230   -2.3308    0.0513 C.ar      1 ACP         0.5422
     24 N7         -2.7800   -2.8517   -0.3004 N.2       1 ACP        -0.5596
     25 C5         -3.6574   -2.4511    0.6758 C.ar      1 ACP        -0.2259
     26 C6         -5.0170   -2.6775    0.8654 C.ar      1 ACP         0.7526
     27 N6         -5.7504   -3.4510   -0.0504 N.pl3     1 ACP        -0.9660
     28 N1         -5.6292   -2.1415    1.9486 N.ar      1 ACP        -0.8027
     29 C2         -4.8703   -1.4055    2.7961 C.ar      1 ACP         0.6758
     30 N3         -3.5527   -1.1170    2.7199 N.ar      1 ACP        -0.7221
     31 C4         -3.0124   -1.6774    1.6275 C.ar      1 ACP         0.5858
     32 HOG2       -6.1238    4.8553   -1.5179 H         1 ACP         0.4705
     33 HOG3       -7.1279    4.9234    1.4499 H         1 ACP         0.4705
     34 H3B1       -4.5961    6.7747   -0.5315 H         1 ACP         0.1189
     35 H3B2       -3.6814    6.5473    0.9559 H         1 ACP         0.1189
     36 HOA2        0.8376    2.9203   -1.2580 H         1 ACP         0.4679
     37 H5'1       -1.7775    2.7842    2.1389 H         1 ACP         0.0587
     38 H5'2       -1.1659    2.0534    0.6322 H         1 ACP         0.0587
     39 H4'         0.0402    1.7079    3.4342 H         1 ACP         0.0938
     40 H3'         1.5907    1.4859    1.1353 H         1 ACP         0.0597
     41 HO3'        2.6839   -0.1150    2.2479 H         1 ACP         0.4554
     42 H2'        -0.0017    0.0018    0.0005 H         1 ACP         0.0710
     43 HO2'        2.0953   -0.9375    0.0709 H         1 ACP         0.4360
     44 H1'        -0.1998   -1.6319    2.6178 H         1 ACP         0.1247
     45 H8         -0.6932   -2.4401   -0.4900 H         1 ACP         0.0875
     46 HN61       -5.2972   -3.8032   -0.8723 H         1 ACP         0.4433
     47 HN62       -6.7381   -3.5629    0.0791 H         1 ACP         0.4433
     48 H2         -5.3929   -0.9917    3.6520 H         1 ACP         0.0459
@<TRIPOS>BOND
     1    1    2 2
     2    1    3 1
     3    1    4 1
     4    1    8 1
     5    3   32 1
     6    4   33 1
     7    5    6 2
     8    5    7 1
     9    5    8 1
    10    5   12 1
    11    8   34 1
    12    8   35 1
    13    9   10 2
    14    9   11 1
    15    9   12 1
    16    9   13 1
    17   11   36 1
    18   13   14 1
    19   14   15 1
    20   14   37 1
    21   14   38 1
    22   15   16 1
    23   15   17 1
    24   15   39 1
    25   16   21 1
    26   17   18 1
    27   17   19 1
    28   17   40 1
    29   18   41 1
    30   19   20 1
    31   19   21 1
    32   19   42 1
    33   20   43 1
    34   21   22 1
    35   21   44 1
    36   22   23 ar
    37   22   31 ar
    38   23   24 ar
    39   23   45 1
    40   24   25 ar
    41   25   26 ar
    42   25   31 ar
    43   26   27 1
    44   26   28 ar
    45   27   46 1
    46   27   47 1
    47   28   29 ar
    48   29   30 ar
    49   29   48 1
    50   30   31 ar
@<TRIPOS>SUBSTRUCTURE
     1 ACP         1 GROUP 0 A     ****
@<TRIPOS>MOLECULE
[[5-(6-aminopurin-9-yl)-3,4-dihydroxy-tetrahydrofuran-2-yl]methoxy-hydroxy-phosphoryl]oxy-(phosphonomethyl)phosphinate
   48    50     1     0     0
SMALL
USER_CHARGES

@<TRIPOS>ATOM
      1 PG         -3.3484    5.9704   -2.5307 P.3       1 ACP         1.6292
      2 O1G        -2.2961    6.8420   -1.9140 O.2       1 ACP        -0.8674
      3 O2G        -4.8574    6.5426   -2.4552 O.3       1 ACP        -0.7977
      4 O3G        -3.1442    5.6412   -4.0990 O.3       1 ACP        -0.7977
      5 PB         -3.9014    4.0850    0.0035 P.3       1 ACP         1.4910
      6 O1B        -3.9281    2.5951    0.2552 O.co2     1 ACP        -0.8292
      7 O2B        -5.0805    4.9764    0.3174 O.co2     1 ACP        -0.8292
      8 C3B        -3.4882    4.3311   -1.7826 C.3       1 ACP        -0.6453
      9 PA         -2.0141    4.7372    2.1728 P.3       1 ACP         1.7996
     10 O1A        -2.9324    5.4191    3.1452 O.2       1 ACP        -0.8588
     11 O2A        -0.5452    5.4055    2.0600 O.3       1 ACP        -0.8037
     12 O3A        -2.5444    4.7218    0.6450 O.3       1 ACP        -0.7988
     13 O5'        -1.7334    3.1724    2.4742 O.3       1 ACP        -0.5960
     14 C5'        -0.8811    2.4285    1.6206 C.3       1 ACP         0.1917
     15 C4'        -0.1994    1.3333    2.4288 C.3       1 ACP         0.0908
     16 O4'        -1.1285    0.2356    2.5840 O.3       1 ACP        -0.4111
     17 C3'         1.0324    0.7610    1.7344 C.3       1 ACP         0.0927
     18 O3'         1.9175    0.2377    2.7247 O.3       1 ACP        -0.6127
     19 C2'         0.4468   -0.3802    0.9263 C.3       1 ACP         0.1095
     20 O2'         1.3993   -1.3703    0.5961 O.3       1 ACP        -0.5953
     21 C1'        -0.6159   -0.9100    1.8769 C.3       1 ACP         0.4273
     22 N9         -1.7127   -1.6108    1.2130 N.pl3     1 ACP        -0.6934
     23 C8         -1.6011   -2.7426    0.4497 C.ar      1 ACP         0.5422
     24 N7         -2.7657   -3.1449   -0.0147 N.2       1 ACP        -0.5596
     25 C5         -3.6708   -2.2337    0.4686 C.ar      1 ACP        -0.2259
     26 C6         -5.0501   -2.1167    0.3282 C.ar      1 ACP         0.7526
     27 N6         -5.7760   -3.0497   -0.4318 N.pl3     1 ACP        -0.9660
     28 N1         -5.6892   -1.0882    0.9359 N.ar      1 ACP        -0.8027
     29 C2         -4.9364   -0.2212    1.6553 C.ar      1 ACP         0.6758
     30 N3         -3.6016   -0.2290    1.8634 N.ar      1 ACP        -0.7221
     31 C4         -3.0352   -1.2703    1.2354 C.ar      1 ACP         0.5858
     32 HOG2       -5.2565    6.7164   -1.5761 H         1 ACP         0.4705
     33 HOG3       -3.1203    6.3824   -4.7412 H         1 ACP         0.4705
     34 H3B1       -4.2528    3.7849   -2.3466 H         1 ACP         0.1189
     35 H3B2       -2.5379    3.8106   -1.9473 H         1 ACP         0.1189
     36 HOA2        0.0181    5.4505    2.8618 H         1 ACP         0.4679
     37 H5'1       -1.4795    1.9921    0.8142 H         1 ACP         0.0587
     38 H5'2       -0.1362    3.1035    1.1868 H         1 ACP         0.0587
     39 H4'         0.0402    1.7079    3.4342 H         1 ACP         0.0938
     40 H3'         1.5907    1.4859    1.1353 H         1 ACP         0.0597
     41 HO3'        2.6839   -0.1150    2.2479 H         1 ACP         0.4554
     42 H2'        -0.0017    0.0018    0.0005 H         1 ACP         0.0710
     43 HO2'        2.0953   -0.9375    0.0709 H         1 ACP         0.4360
     44 H1'        -0.1998   -1.6319    2.6178 H         1 ACP         0.1247
     45 H8         -0.6507   -3.2259    0.2692 H         1 ACP         0.0875
     46 HN61       -5.2868   -3.7791   -0.9150 H         1 ACP         0.4433
     47 HN62       -6.7619   -2.9208   -0.5594 H         1 ACP         0.4433
     48 H2         -5.4806    0.5898    2.1277 H         1 ACP         0.0459
@<TRIPOS>BOND
     1    1    2 2
     2    1    3 1
     3    1    4 1
     4    1    8 1
     5    3   32 1
     6    4   33 1
     7    5    6 2
     8    5    7 1
     9    5    8 1
    10    5   12 1
    11    8   34 1
    12    8   35 1
    13    9   10 2
    14    9   11 1
    15    9   12 1
    16    9   13 1
    17   11   36 1
    18   13   14 1
    19   14   15 1
    20   14   37 1
    21   14   38 1
    22   15   16 1
    23   15   17 1
    24   15   39 1
    25   16   21 1
    26   17   18 1
    27   17   19 1
    28   17   40 1
    29   18   41 1
    30   19   20 1
    31   19   21 1
    32   19   42 1
    33   20   43 1
    34   21   22 1
    35   21   44 1
    36   22   23 ar
    37   22   31 ar
    38   23   24 ar
    39   23   45 1
    40   24   25 ar
    41   25   26 ar
    42   25   31 ar
    43   26   27 1
    44   26   28 ar
    45   27   46 1
    46   27   47 1
    47   28   29 ar
    48   29   30 ar
    49   29   48 1
    50   30   31 ar
@<TRIPOS>SUBSTRUCTURE
     1 ACP         1 GROUP 0 A     ****
@<TRIPOS>MOLECULE
[[5-(6-aminopurin-9-yl)-3,4-dihydroxy-tetrahydrofuran-2-yl]methoxy-hydroxy-phosphoryl]oxy-(phosphonomethyl)phosphinate
   48    50     1     0     0
SMALL
USER_CHARGES

@<TRIPOS>ATOM
      1 PG          7.4346    0.1689    3.3398 P.3       1 ACP         1.6292
      2 O1G         8.3230    1.3152    3.7192 O.2       1 ACP        -0.8674
      3 O2G         7.2678   -0.9825    4.4608 O.3       1 ACP        -0.7977
      4 O3G         5.9124    0.5642    2.9707 O.3       1 ACP        -0.7977
      5 PB          8.1785    0.0463    0.2230 P.3       1 ACP         1.4910
      6 O1B         8.6503   -1.0248   -0.7329 O.co2     1 ACP        -0.8292
      7 O2B         8.9406    1.3348    0.4291 O.co2     1 ACP        -0.8292
      8 C3B         7.9850   -0.7475    1.8824 C.3       1 ACP        -0.6453
      9 PA          5.8746    0.9206   -1.3958 P.3       1 ACP         1.7996
     10 O1A         6.0243    0.0318   -2.5963 O.2       1 ACP        -0.8588
     11 O2A         6.4832    2.4075   -1.5854 O.3       1 ACP        -0.8037
     12 O3A         6.6072    0.3762   -0.0606 O.3       1 ACP        -0.7988
     13 O5'         4.3521    1.1579   -0.9020 O.3       1 ACP        -0.5960
     14 C5'         4.0922    1.9801    0.2227 C.3       1 ACP         0.1917
     15 C4'         2.5944    2.0310    0.4653 C.3       1 ACP         0.0908
     16 O4'         1.9327    2.5740   -0.6889 O.3       1 ACP        -0.4111
     17 C3'         1.9685    0.6634    0.6767 C.3       1 ACP         0.0927
     18 O3'         2.1425    0.1975    1.9977 O.3       1 ACP        -0.6127
     19 C2'         0.5176    0.9128    0.3099 C.3       1 ACP         0.1095
     20 O2'        -0.2103    1.4454    1.4152 O.3       1 ACP        -0.5953
     21 C1'         0.6219    1.9765   -0.7844 C.3       1 ACP         0.4273
     22 N9          0.4237    1.4496   -2.1357 N.pl3     1 ACP        -0.6934
     23 C8          1.1856    0.4888   -2.7458 C.ar      1 ACP         0.5422
     24 N7          0.7615    0.2176   -3.9625 N.2       1 ACP        -0.5596
     25 C5         -0.3220    1.0389   -4.1485 C.ar      1 ACP        -0.2259
     26 C6         -1.1900    1.2182   -5.2210 C.ar      1 ACP         0.7526
     27 N6         -1.0341    0.4739   -6.4028 N.pl3     1 ACP        -0.9660
     28 N1         -2.1929    2.1227   -5.1127 N.ar      1 ACP        -0.8027
     29 C2         -2.2930    2.8097   -3.9492 C.ar      1 ACP         0.6758
     30 N3         -1.5176    2.7252   -2.8462 N.ar      1 ACP        -0.7221
     31 C4         -0.5489    1.8142   -3.0226 C.ar      1 ACP         0.5858
     32 HOG2        6.8939   -0.7436    5.3356 H         1 ACP         0.4705
     33 HOG3        5.2856   -0.1456    2.7148 H         1 ACP         0.4705
     34 H3B1        8.9622   -1.1800    2.1253 H         1 ACP         0.1189
     35 H3B2        7.2928   -1.5848    1.7378 H         1 ACP         0.1189
     36 HOA2        7.4386    2.5070   -1.7841 H         1 ACP         0.4679
     37 H5'1        4.6066    1.5623    1.0942 H         1 ACP         0.0587
     38 H5'2        4.4821    2.9842    0.0261 H         1 ACP         0.0587
     39 H4'         2.3752    2.7029    1.3156 H         1 ACP         0.0938
     40 H3'         2.4336   -0.1217   -0.0016 H         1 ACP         0.0597
     41 HO3'        1.7160   -0.6716    2.0397 H         1 ACP         0.4554
     42 H2'         0.0316    0.0155   -0.0339 H         1 ACP         0.0710
     43 HO2'       -0.1608    0.7921    2.1351 H         1 ACP         0.4360
     44 H1'        -0.1474    2.7798   -0.6651 H         1 ACP         0.1247
     45 H8          2.0314    0.0256   -2.2564 H         1 ACP         0.0875
     46 HN61       -0.2609   -0.1582   -6.4888 H         1 ACP         0.4433
     47 HN62       -1.6409    0.6517   -7.1807 H         1 ACP         0.4433
     48 H2         -3.1067    3.5253   -3.8975 H         1 ACP         0.0459
@<TRIPOS>BOND
     1    1    2 2
     2    1    3 1
     3    1    4 1
     4    1    8 1
     5    3   32 1
     6    4   33 1
     7    5    6 2
     8    5    7 1
     9    5    8 1
    10    5   12 1
    11    8   34 1
    12    8   35 1
    13    9   10 2
    14    9   11 1
    15    9   12 1
    16    9   13 1
    17   11   36 1
    18   13   14 1
    19   14   15 1
    20   14   37 1
    21   14   38 1
    22   15   16 1
    23   15   17 1
    24   15   39 1
    25   16   21 1
    26   17   18 1
    27   17   19 1
    28   17   40 1
    29   18   41 1
    30   19   20 1
    31   19   21 1
    32   19   42 1
    33   20   43 1
    34   21   22 1
    35   21   44 1
    36   22   23 ar
    37   22   31 ar
    38   23   24 ar
    39   23   45 1
    40   24   25 ar
    41   25   26 ar
    42   25   31 ar
    43   26   27 1
    44   26   28 ar
    45   27   46 1
    46   27   47 1
    47   28   29 ar
    48   29   30 ar
    49   29   48 1
    50   30   31 ar
@<TRIPOS>SUBSTRUCTURE
     1 ACP         1 GROUP 0 A     ****
@<TRIPOS>MOLECULE
[[5-(6-aminopurin-9-yl)-3,4-dihydroxy-tetrahydrofuran-2-yl]methoxy-hydroxy-phosphoryl]oxy-(phosphonomethyl)phosphinate
   48    50     1     0     0
SMALL
USER_CHARGES

@<TRIPOS>ATOM
      1 PG          7.2474    0.9143    3.1981 P.3       1 ACP         1.6292
      2 O1G         7.4247    2.1761    2.4082 O.2       1 ACP        -0.8674
      3 O2G         8.2754    0.7135    4.4282 O.3       1 ACP        -0.7977
      4 O3G         5.7956    0.7215    3.8800 O.3       1 ACP        -0.7977
      5 PB          6.3864   -1.0048    0.7776 P.3       1 ACP         1.4910
      6 O1B         4.9601   -1.0730    1.2722 O.co2     1 ACP        -0.8292
      7 O2B         7.0421   -2.1542    0.0480 O.co2     1 ACP        -0.8292
      8 C3B         7.4522   -0.6009    2.2345 C.3       1 ACP        -0.6453
      9 PA          5.8746    0.9206   -1.3958 P.3       1 ACP         1.7996
     10 O1A         6.0243    0.0318   -2.5963 O.2       1 ACP        -0.8588
     11 O2A         6.4832    2.4075   -1.5854 O.3       1 ACP        -0.8037
     12 O3A         6.6072    0.3762   -0.0606 O.3       1 ACP        -0.7988
     13 O5'         4.3521    1.1579   -0.9020 O.3       1 ACP        -0.5960
     14 C5'         4.0922    1.9801    0.2227 C.3       1 ACP         0.1917
     15 C4'         2.5944    2.0310    0.4653 C.3       1 ACP         0.0908
     16 O4'         1.9327    2.5740   -0.6889 O.3       1 ACP        -0.4111
     17 C3'         1.9685    0.6634    0.6767 C.3       1 ACP         0.0927
     18 O3'         2.1425    0.1975    1.9977 O.3       1 ACP        -0.6127
     19 C2'         0.5176    0.9128    0.3099 C.3       1 ACP         0.1095
     20 O2'        -0.2103    1.4454    1.4152 O.3       1 ACP        -0.5953
     21 C1'         0.6219    1.9765   -0.7844 C.3       1 ACP         0.4273
     22 N9          0.4237    1.4496   -2.1357 N.pl3     1 ACP        -0.6934
     23 C8         -0.6990    0.8143   -2.5962 C.ar      1 ACP         0.5422
     24 N7         -0.5842    0.4561   -3.8580 N.2       1 ACP        -0.5596
     25 C5          0.6674    0.8775   -4.2308 C.ar      1 ACP        -0.2259
     26 C6          1.3671    0.7929   -5.4304 C.ar      1 ACP         0.7526
     27 N6          0.7907    0.1795   -6.5558 N.pl3     1 ACP        -0.9660
     28 N1          2.6167    1.3114   -5.5022 N.ar      1 ACP        -0.8027
     29 C2          3.1190    1.8905   -4.3849 C.ar      1 ACP         0.6758
     30 N3          2.5420    2.0322   -3.1717 N.ar      1 ACP        -0.7221
     31 C4          1.3113    1.4986   -3.1725 C.ar      1 ACP         0.5858
     32 HOG2        8.2906    1.3792    5.1485 H         1 ACP         0.4705
     33 HOG3        5.6224   -0.0862    4.4091 H         1 ACP         0.4705
     34 H3B1        8.4838   -0.6092    1.8646 H         1 ACP         0.1189
     35 H3B2        7.3541   -1.4469    2.9243 H         1 ACP         0.1189
     36 HOA2        6.1250    2.9792   -2.2976 H         1 ACP         0.4679
     37 H5'1        4.6066    1.5623    1.0942 H         1 ACP         0.0587
     38 H5'2        4.4821    2.9842    0.0261 H         1 ACP         0.0587
     39 H4'         2.3752    2.7029    1.3156 H         1 ACP         0.0938
     40 H3'         2.4336   -0.1217   -0.0016 H         1 ACP         0.0597
     41 HO3'        1.7160   -0.6716    2.0397 H         1 ACP         0.4554
     42 H2'         0.0316    0.0155   -0.0339 H         1 ACP         0.0710
     43 HO2'       -0.1608    0.7921    2.1351 H         1 ACP         0.4360
     44 H1'        -0.1474    2.7798   -0.6651 H         1 ACP         0.1247
     45 H8         -1.5636    0.6429   -1.9696 H         1 ACP         0.0875
     46 HN61       -0.1155   -0.2418   -6.4776 H         1 ACP         0.4433
     47 HN62        1.3291    0.0869   -7.3963 H         1 ACP         0.4433
     48 H2          4.1215    2.2946   -4.4783 H         1 ACP         0.0459
@<TRIPOS>BOND
     1    1    2 2
     2    1    3 1
     3    1    4 1
     4    1    8 1
     5    3   32 1
     6    4   33 1
     7    5    6 2
     8    5    7 1
     9    5    8 1
    10    5   12 1
    11    8   34 1
    12    8   35 1
    13    9   10 2
    14    9   11 1
    15    9   12 1
    16    9   13 1
    17   11   36 1
    18   13   14 1
    19   14   15 1
    20   14   37 1
    21   14   38 1
    22   15   16 1
    23   15   17 1
    24   15   39 1
    25   16   21 1
    26   17   18 1
    27   17   19 1
    28   17   40 1
    29   18   41 1
    30   19   20 1
    31   19   21 1
    32   19   42 1
    33   20   43 1
    34   21   22 1
    35   21   44 1
    36   22   23 ar
    37   22   31 ar
    38   23   24 ar
    39   23   45 1
    40   24   25 ar
    41   25   26 ar
    42   25   31 ar
    43   26   27 1
    44   26   28 ar
    45   27   46 1
    46   27   47 1
    47   28   29 ar
    48   29   30 ar
    49   29   48 1
    50   30   31 ar
@<TRIPOS>SUBSTRUCTURE
     1 ACP         1 GROUP 0 A     ****
@<TRIPOS>MOLECULE
[[5-(6-aminopurin-9-yl)-3,4-dihydroxy-tetrahydrofuran-2-yl]methoxy-hydroxy-phosphoryl]oxy-(phosphonomethyl)phosphinate
   48    50     1     0     0
SMALL
USER_CHARGES

@<TRIPOS>ATOM
      1 PG          6.9946    5.8679   -0.5710 P.3       1 ACP         1.6292
      2 O1G         5.6016    5.3225   -0.6685 O.2       1 ACP        -0.8674
      3 O2G         7.9064    5.6873   -1.8923 O.3       1 ACP        -0.7977
      4 O3G         7.0996    7.4475   -0.2490 O.3       1 ACP        -0.7977
      5 PB          8.3785    3.3070    0.7742 P.3       1 ACP         1.4910
      6 O1B         9.2312    3.0583    1.9968 O.co2     1 ACP        -0.8292
      7 O2B         8.8251    2.9104   -0.6139 O.co2     1 ACP        -0.8292
      8 C3B         7.9976    5.1166    0.7313 C.3       1 ACP        -0.6453
      9 PA          6.3383    1.2707    1.3934 P.3       1 ACP         1.7996
     10 O1A         6.8983    0.6915    2.6601 O.2       1 ACP        -0.8588
     11 O2A         6.6824    0.4202    0.0609 O.3       1 ACP        -0.8037
     12 O3A         6.8669    2.7585    1.0432 O.3       1 ACP        -0.7988
     13 O5'         4.7297    1.4430    1.3689 O.3       1 ACP        -0.5960
     14 C5'         4.0922    1.9801    0.2227 C.3       1 ACP         0.1917
     15 C4'         2.5944    2.0310    0.4653 C.3       1 ACP         0.0908
     16 O4'         1.9327    2.5740   -0.6889 O.3       1 ACP        -0.4111
     17 C3'         1.9685    0.6634    0.6767 C.3       1 ACP         0.0927
     18 O3'         2.1425    0.1975    1.9977 O.3       1 ACP        -0.6127
     19 C2'         0.5176    0.9128    0.3099 C.3       1 ACP         0.1095
     20 O2'        -0.2103    1.4454    1.4152 O.3       1 ACP        -0.5953
     21 C1'         0.6219    1.9765   -0.7844 C.3       1 ACP         0.4273
     22 N9          0.4237    1.4496   -2.1357 N.pl3     1 ACP        -0.6934
     23 C8          1.1856    0.4888   -2.7458 C.ar      1 ACP         0.5422
     24 N7          0.7615    0.2176   -3.9625 N.2       1 ACP        -0.5596
     25 C5         -0.3220    1.0389   -4.1485 C.ar      1 ACP        -0.2259
     26 C6         -1.1900    1.2182   -5.2210 C.ar      1 ACP         0.7526
     27 N6         -1.0341    0.4739   -6.4028 N.pl3     1 ACP        -0.9660
     28 N1         -2.1929    2.1227   -5.1127 N.ar      1 ACP        -0.8027
     29 C2         -2.2930    2.8097   -3.9492 C.ar      1 ACP         0.6758
     30 N3         -1.5176    2.7252   -2.8462 N.ar      1 ACP        -0.7221
     31 C4         -0.5489    1.8142   -3.0226 C.ar      1 ACP         0.5858
     32 HOG2        8.8271    6.0258   -1.8846 H         1 ACP         0.4705
     33 HOG3        6.6951    8.0877   -0.8726 H         1 ACP         0.4705
     34 H3B1        8.9667    5.6283    0.7257 H         1 ACP         0.1189
     35 H3B2        7.5206    5.3476    1.6906 H         1 ACP         0.1189
     36 HOA2        6.3789   -0.5107    0.0009 H         1 ACP         0.4679
     37 H5'1        4.4838    2.9857    0.0374 H         1 ACP         0.0587
     38 H5'2        4.3186    1.3449   -0.6398 H         1 ACP         0.0587
     39 H4'         2.3752    2.7029    1.3156 H         1 ACP         0.0938
     40 H3'         2.4336   -0.1217   -0.0016 H         1 ACP         0.0597
     41 HO3'        1.7160   -0.6716    2.0397 H         1 ACP         0.4554
     42 H2'         0.0316    0.0155   -0.0339 H         1 ACP         0.0710
     43 HO2'       -0.1608    0.7921    2.1351 H         1 ACP         0.4360
     44 H1'        -0.1474    2.7798   -0.6651 H         1 ACP         0.1247
     45 H8          2.0314    0.0256   -2.2564 H         1 ACP         0.0875
     46 HN61       -0.2609   -0.1582   -6.4888 H         1 ACP         0.4433
     47 HN62       -1.6409    0.6517   -7.1807 H         1 ACP         0.4433
     48 H2         -3.1067    3.5253   -3.8975 H         1 ACP         0.0459
@<TRIPOS>BOND
     1    1    2 2
     2    1    3 1
     3    1    4 1
     4    1    8 1
     5    3   32 1
     6    4   33 1
     7    5    6 2
     8    5    7 1
     9    5    8 1
    10    5   12 1
    11    8   34 1
    12    8   35 1
    13    9   10 2
    14    9   11 1
    15    9   12 1
    16    9   13 1
    17   11   36 1
    18   13   14 1
    19   14   15 1
    20   14   37 1
    21   14   38 1
    22   15   16 1
    23   15   17 1
    24   15   39 1
    25   16   21 1
    26   17   18 1
    27   17   19 1
    28   17   40 1
    29   18   41 1
    30   19   20 1
    31   19   21 1
    32   19   42 1
    33   20   43 1
    34   21   22 1
    35   21   44 1
    36   22   23 ar
    37   22   31 ar
    38   23   24 ar
    39   23   45 1
    40   24   25 ar
    41   25   26 ar
    42   25   31 ar
    43   26   27 1
    44   26   28 ar
    45   27   46 1
    46   27   47 1
    47   28   29 ar
    48   29   30 ar
    49   29   48 1
    50   30   31 ar
@<TRIPOS>SUBSTRUCTURE
     1 ACP         1 GROUP 0 A     ****
@<TRIPOS>MOLECULE
[[5-(6-aminopurin-9-yl)-3,4-dihydroxy-tetrahydrofuran-2-yl]methoxy-hydroxy-phosphoryl]oxy-(phosphonomethyl)phosphinate
   48    50     1     0     0
SMALL
USER_CHARGES

@<TRIPOS>ATOM
      1 PG         -3.9760    6.7548    1.6952 P.3       1 ACP         1.6292
      2 O1G        -3.1776    5.9661    2.6891 O.2       1 ACP        -0.8674
      3 O2G        -5.5442    6.9279    2.0432 O.3       1 ACP        -0.7977
      4 O3G        -3.4719    8.2694    1.4465 O.3       1 ACP        -0.7977
      5 PB         -2.4537    5.7923   -0.9579 P.3       1 ACP         1.4910
      6 O1B        -1.8060    7.1457   -1.1382 O.co2     1 ACP        -0.8292
      7 O2B        -2.8158    4.9098   -2.1298 O.co2     1 ACP        -0.8292
      8 C3B        -3.9955    6.0508    0.0308 C.3       1 ACP        -0.6453
      9 PA         -0.0715    4.4469    0.1409 P.3       1 ACP         1.7996
     10 O1A         0.9309    5.5629    0.0817 O.2       1 ACP        -0.8588
     11 O2A         0.0046    3.4141   -1.1020 O.3       1 ACP        -0.8037
     12 O3A        -1.6152    4.9291    0.1422 O.3       1 ACP        -0.7988
     13 O5'         0.0170    3.5129    1.4593 O.3       1 ACP        -0.5960
     14 C5'        -0.8811    2.4285    1.6206 C.3       1 ACP         0.1917
     15 C4'        -0.1994    1.3333    2.4288 C.3       1 ACP         0.0908
     16 O4'        -1.1285    0.2356    2.5840 O.3       1 ACP        -0.4111
     17 C3'         1.0324    0.7610    1.7344 C.3       1 ACP         0.0927
     18 O3'         1.9175    0.2377    2.7247 O.3       1 ACP        -0.6127
     19 C2'         0.4468   -0.3802    0.9263 C.3       1 ACP         0.1095
     20 O2'         1.3993   -1.3703    0.5961 O.3       1 ACP        -0.5953
     21 C1'        -0.6159   -0.9100    1.8769 C.3       1 ACP         0.4273
     22 N9         -1.7127   -1.6108    1.2130 N.pl3     1 ACP        -0.6934
     23 C8         -1.6230   -2.3308    0.0513 C.ar      1 ACP         0.5422
     24 N7         -2.7800   -2.8517   -0.3004 N.2       1 ACP        -0.5596
     25 C5         -3.6574   -2.4511    0.6758 C.ar      1 ACP        -0.2259
     26 C6         -5.0170   -2.6775    0.8654 C.ar      1 ACP         0.7526
     27 N6         -5.7504   -3.4510   -0.0504 N.pl3     1 ACP        -0.9660
     28 N1         -5.6292   -2.1415    1.9486 N.ar      1 ACP        -0.8027
     29 C2         -4.8703   -1.4055    2.7961 C.ar      1 ACP         0.6758
     30 N3         -3.5527   -1.1170    2.7199 N.ar      1 ACP        -0.7221
     31 C4         -3.0124   -1.6774    1.6275 C.ar      1 ACP         0.5858
     32 HOG2       -6.1147    7.4351    1.4272 H         1 ACP         0.4705
     33 HOG3       -3.4517    8.8939    2.2027 H         1 ACP         0.4705
     34 H3B1       -4.4750    5.0680    0.1035 H         1 ACP         0.1189
     35 H3B2       -4.6481    6.6790   -0.5861 H         1 ACP         0.1189
     36 HOA2        0.8376    2.9203   -1.2580 H         1 ACP         0.4679
     37 H5'1       -1.7775    2.7842    2.1389 H         1 ACP         0.0587
     38 H5'2       -1.1659    2.0534    0.6322 H         1 ACP         0.0587
     39 H4'         0.0402    1.7079    3.4342 H         1 ACP         0.0938
     40 H3'         1.5907    1.4859    1.1353 H         1 ACP         0.0597
     41 HO3'        2.6839   -0.1150    2.2479 H         1 ACP         0.4554
     42 H2'        -0.0017    0.0018    0.0005 H         1 ACP         0.0710
     43 HO2'        2.0953   -0.9375    0.0709 H         1 ACP         0.4360
     44 H1'        -0.1998   -1.6319    2.6178 H         1 ACP         0.1247
     45 H8         -0.6932   -2.4401   -0.4900 H         1 ACP         0.0875
     46 HN61       -5.2972   -3.8032   -0.8723 H         1 ACP         0.4433
     47 HN62       -6.7381   -3.5629    0.0791 H         1 ACP         0.4433
     48 H2         -5.3929   -0.9917    3.6520 H         1 ACP         0.0459
@<TRIPOS>BOND
     1    1    2 2
     2    1    3 1
     3    1    4 1
     4    1    8 1
     5    3   32 1
     6    4   33 1
     7    5    6 2
     8    5    7 1
     9    5    8 1
    10    5   12 1
    11    8   34 1
    12    8   35 1
    13    9   10 2
    14    9   11 1
    15    9   12 1
    16    9   13 1
    17   11   36 1
    18   13   14 1
    19   14   15 1
    20   14   37 1
    21   14   38 1
    22   15   16 1
    23   15   17 1
    24   15   39 1
    25   16   21 1
    26   17   18 1
    27   17   19 1
    28   17   40 1
    29   18   41 1
    30   19   20 1
    31   19   21 1
    32   19   42 1
    33   20   43 1
    34   21   22 1
    35   21   44 1
    36   22   23 ar
    37   22   31 ar
    38   23   24 ar
    39   23   45 1
    40   24   25 ar
    41   25   26 ar
    42   25   31 ar
    43   26   27 1
    44   26   28 ar
    45   27   46 1
    46   27   47 1
    47   28   29 ar
    48   29   30 ar
    49   29   48 1
    50   30   31 ar
@<TRIPOS>SUBSTRUCTURE
     1 ACP         1 GROUP 0 A     ****
@<TRIPOS>MOLECULE
[[5-(6-aminopurin-9-yl)-3,4-dihydroxy-tetrahydrofuran-2-yl]methoxy-hydroxy-phosphoryl]oxy-(phosphonomethyl)phosphinate
   48    50     1     0     0
SMALL
USER_CHARGES

@<TRIPOS>ATOM
      1 PG          4.0699    1.9184   -4.6930 P.3       1 ACP         1.6292
      2 O1G         3.3776    1.4569   -3.4460 O.2       1 ACP        -0.8674
      3 O2G         5.1716    0.9010   -5.2941 O.3       1 ACP        -0.7977
      4 O3G         3.1031    2.2196   -5.9517 O.3       1 ACP        -0.7977
      5 PB          6.3814    3.6502   -3.2998 P.3       1 ACP         1.4910
      6 O1B         6.8972    5.0647   -3.4293 O.co2     1 ACP        -0.8292
      7 O2B         7.2804    2.4466   -3.4629 O.co2     1 ACP        -0.8292
      8 C3B         4.9902    3.4624   -4.5043 C.3       1 ACP        -0.6453
      9 PA          5.9543    3.7362   -0.3838 P.3       1 ACP         1.7996
     10 O1A         6.4427    5.1210   -0.0715 O.2       1 ACP        -0.8588
     11 O2A         7.0427    2.5687   -0.1198 O.3       1 ACP        -0.8037
     12 O3A         5.5174    3.5089   -1.9243 O.3       1 ACP        -0.7988
     13 O5'         4.6408    3.2691    0.4376 O.3       1 ACP        -0.5960
     14 C5'         4.0922    1.9801    0.2227 C.3       1 ACP         0.1917
     15 C4'         2.5944    2.0310    0.4653 C.3       1 ACP         0.0908
     16 O4'         1.9327    2.5740   -0.6889 O.3       1 ACP        -0.4111
     17 C3'         1.9685    0.6634    0.6767 C.3       1 ACP         0.0927
     18 O3'         2.1425    0.1975    1.9977 O.3       1 ACP        -0.6127
     19 C2'         0.5176    0.9128    0.3099 C.3       1 ACP         0.1095
     20 O2'        -0.2103    1.4454    1.4152 O.3       1 ACP        -0.5953
     21 C1'         0.6219    1.9765   -0.7844 C.3       1 ACP         0.4273
     22 N9          0.4237    1.4496   -2.1357 N.pl3     1 ACP        -0.6934
     23 C8          0.7352    0.1857   -2.5616 C.ar      1 ACP         0.5422
     24 N7          0.4386    0.0025   -3.8312 N.2       1 ACP        -0.5596
     25 C5         -0.0877    1.2002   -4.2458 C.ar      1 ACP        -0.2259
     26 C6         -0.5826    1.6331   -5.4719 C.ar      1 ACP         0.7526
     27 N6         -0.6027    0.7720   -6.5824 N.pl3     1 ACP        -0.9660
     28 N1         -1.0479    2.9006   -5.5841 N.ar      1 ACP        -0.8027
     29 C2         -1.0031    3.6836   -4.4792 C.ar      1 ACP         0.6758
     30 N3         -0.5493    3.3800   -3.2436 N.ar      1 ACP        -0.7221
     31 C4         -0.1057    2.1146   -3.2048 C.ar      1 ACP         0.5858
     32 HOG2        5.6557    1.1520   -6.1094 H         1 ACP         0.4705
     33 HOG3        2.5470    1.4944   -6.3082 H         1 ACP         0.4705
     34 H3B1        5.4073    3.7098   -5.4871 H         1 ACP         0.1189
     35 H3B2        4.2684    4.2492   -4.2571 H         1 ACP         0.1189
     36 HOA2        7.4004    2.4499    0.7858 H         1 ACP         0.4679
     37 H5'1        4.3024    1.6721   -0.8067 H         1 ACP         0.0587
     38 H5'2        4.5673    1.2730    0.9105 H         1 ACP         0.0587
     39 H4'         2.3752    2.7029    1.3156 H         1 ACP         0.0938
     40 H3'         2.4336   -0.1217   -0.0016 H         1 ACP         0.0597
     41 HO3'        1.7160   -0.6716    2.0397 H         1 ACP         0.4554
     42 H2'         0.0316    0.0155   -0.0339 H         1 ACP         0.0710
     43 HO2'       -0.1608    0.7921    2.1351 H         1 ACP         0.4360
     44 H1'        -0.1474    2.7798   -0.6651 H         1 ACP         0.1247
     45 H8          1.1731   -0.5535   -1.9047 H         1 ACP         0.0875
     46 HN61       -0.2130   -0.1479   -6.4999 H         1 ACP         0.4433
     47 HN62       -0.9195    1.1179   -7.4683 H         1 ACP         0.4433
     48 H2         -1.3833    4.6919   -4.6052 H         1 ACP         0.0459
@<TRIPOS>BOND
     1    1    2 2
     2    1    3 1
     3    1    4 1
     4    1    8 1
     5    3   32 1
     6    4   33 1
     7    5    6 2
     8    5    7 1
     9    5    8 1
    10    5   12 1
    11    8   34 1
    12    8   35 1
    13    9   10 2
    14    9   11 1
    15    9   12 1
    16    9   13 1
    17   11   36 1
    18   13   14 1
    19   14   15 1
    20   14   37 1
    21   14   38 1
    22   15   16 1
    23   15   17 1
    24   15   39 1
    25   16   21 1
    26   17   18 1
    27   17   19 1
    28   17   40 1
    29   18   41 1
    30   19   20 1
    31   19   21 1
    32   19   42 1
    33   20   43 1
    34   21   22 1
    35   21   44 1
    36   22   23 ar
    37   22   31 ar
    38   23   24 ar
    39   23   45 1
    40   24   25 ar
    41   25   26 ar
    42   25   31 ar
    43   26   27 1
    44   26   28 ar
    45   27   46 1
    46   27   47 1
    47   28   29 ar
    48   29   30 ar
    49   29   48 1
    50   30   31 ar
@<TRIPOS>SUBSTRUCTURE
     1 ACP         1 GROUP 0 A     ****
@<TRIPOS>MOLECULE
[[5-(6-aminopurin-9-yl)-3,4-dihydroxy-tetrahydrofuran-2-yl]methoxy-hydroxy-phosphoryl]oxy-(phosphonomethyl)phosphinate
   48    50     1     0     0
SMALL
USER_CHARGES

@<TRIPOS>ATOM
      1 PG         -5.0851    4.1420   -0.2657 P.3       1 ACP         1.6292
      2 O1G        -6.4931    4.2126    0.2442 O.2       1 ACP        -0.8674
      3 O2G        -4.0992    3.1543    0.5483 O.3       1 ACP        -0.7977
      4 O3G        -4.9266    3.6591   -1.7992 O.3       1 ACP        -0.7977
      5 PB         -2.4565    5.8938   -0.8180 P.3       1 ACP         1.4910
      6 O1B        -2.0704    7.3446   -0.6458 O.co2     1 ACP        -0.8292
      7 O2B        -2.3523    5.1846   -2.1483 O.co2     1 ACP        -0.8292
      8 C3B        -4.2051    5.7205   -0.2401 C.3       1 ACP        -0.6453
      9 PA         -0.1733    4.7801    0.6785 P.3       1 ACP         1.7996
     10 O1A         0.5701    6.0367    1.0281 O.2       1 ACP        -0.8588
     11 O2A         0.3946    4.0088   -0.6253 O.3       1 ACP        -0.8037
     12 O3A        -1.7399    4.9978    0.3404 O.3       1 ACP        -0.7988
     13 O5'        -0.2069    3.6554    1.8412 O.3       1 ACP        -0.5960
     14 C5'        -0.8811    2.4285    1.6206 C.3       1 ACP         0.1917
     15 C4'        -0.1994    1.3333    2.4288 C.3       1 ACP         0.0908
     16 O4'        -1.1285    0.2356    2.5840 O.3       1 ACP        -0.4111
     17 C3'         1.0324    0.7610    1.7344 C.3       1 ACP         0.0927
     18 O3'         1.9175    0.2377    2.7247 O.3       1 ACP        -0.6127
     19 C2'         0.4468   -0.3802    0.9263 C.3       1 ACP         0.1095
     20 O2'         1.3993   -1.3703    0.5961 O.3       1 ACP        -0.5953
     21 C1'        -0.6159   -0.9100    1.8769 C.3       1 ACP         0.4273
     22 N9         -1.7127   -1.6108    1.2130 N.pl3     1 ACP        -0.6934
     23 C8         -1.6011   -2.7426    0.4497 C.ar      1 ACP         0.5422
     24 N7         -2.7657   -3.1449   -0.0147 N.2       1 ACP        -0.5596
     25 C5         -3.6708   -2.2337    0.4686 C.ar      1 ACP        -0.2259
     26 C6         -5.0501   -2.1167    0.3282 C.ar      1 ACP         0.7526
     27 N6         -5.7760   -3.0497   -0.4318 N.pl3     1 ACP        -0.9660
     28 N1         -5.6892   -1.0882    0.9359 N.ar      1 ACP        -0.8027
     29 C2         -4.9364   -0.2212    1.6553 C.ar      1 ACP         0.6758
     30 N3         -3.6016   -0.2290    1.8634 N.ar      1 ACP        -0.7221
     31 C4         -3.0352   -1.2703    1.2354 C.ar      1 ACP         0.5858
     32 HOG2       -3.1661    3.0691    0.2582 H         1 ACP         0.4705
     33 HOG3       -5.2592    2.7724   -2.0551 H         1 ACP         0.4705
     34 H3B1       -4.7919    6.4250   -0.8402 H         1 ACP         0.1189
     35 H3B2       -4.2203    6.0905    0.7914 H         1 ACP         0.1189
     36 HOA2        1.3229    3.6919   -0.6217 H         1 ACP         0.4679
     37 H5'1       -1.9259    2.5372    1.9293 H         1 ACP         0.0587
     38 H5'2       -0.8477    2.1923    0.5521 H         1 ACP         0.0587
     39 H4'         0.0402    1.7079    3.4342 H         1 ACP         0.0938
     40 H3'         1.5907    1.4859    1.1353 H         1 ACP         0.0597
     41 HO3'        2.6839   -0.1150    2.2479 H         1 ACP         0.4554
     42 H2'        -0.0017    0.0018    0.0005 H         1 ACP         0.0710
     43 HO2'        2.0953   -0.9375    0.0709 H         1 ACP         0.4360
     44 H1'        -0.1998   -1.6319    2.6178 H         1 ACP         0.1247
     45 H8         -0.6507   -3.2259    0.2692 H         1 ACP         0.0875
     46 HN61       -5.2868   -3.7791   -0.9150 H         1 ACP         0.4433
     47 HN62       -6.7619   -2.9208   -0.5594 H         1 ACP         0.4433
     48 H2         -5.4806    0.5898    2.1277 H         1 ACP         0.0459
@<TRIPOS>BOND
     1    1    2 2
     2    1    3 1
     3    1    4 1
     4    1    8 1
     5    3   32 1
     6    4   33 1
     7    5    6 2
     8    5    7 1
     9    5    8 1
    10    5   12 1
    11    8   34 1
    12    8   35 1
    13    9   10 2
    14    9   11 1
    15    9   12 1
    16    9   13 1
    17   11   36 1
    18   13   14 1
    19   14   15 1
    20   14   37 1
    21   14   38 1
    22   15   16 1
    23   15   17 1
    24   15   39 1
    25   16   21 1
    26   17   18 1
    27   17   19 1
    28   17   40 1
    29   18   41 1
    30   19   20 1
    31   19   21 1
    32   19   42 1
    33   20   43 1
    34   21   22 1
    35   21   44 1
    36   22   23 ar
    37   22   31 ar
    38   23   24 ar
    39   23   45 1
    40   24   25 ar
    41   25   26 ar
    42   25   31 ar
    43   26   27 1
    44   26   28 ar
    45   27   46 1
    46   27   47 1
    47   28   29 ar
    48   29   30 ar
    49   29   48 1
    50   30   31 ar
@<TRIPOS>SUBSTRUCTURE
     1 ACP         1 GROUP 0 A     ****
@<TRIPOS>MOLECULE
[[5-(6-aminopurin-9-yl)-3,4-dihydroxy-tetrahydrofuran-2-yl]methoxy-hydroxy-phosphoryl]oxy-(phosphonomethyl)phosphinate
   48    50     1     0     0
SMALL
USER_CHARGES

@<TRIPOS>ATOM
      1 PG          0.7897   -1.6465   -4.4299 P.3       1 ACP         1.6292
      2 O1G         1.6772   -0.4456   -4.2968 O.2       1 ACP        -0.8674
      3 O2G         1.4969   -2.9714   -5.0253 O.3       1 ACP        -0.7977
      4 O3G         0.1101   -2.1617   -3.0578 O.3       1 ACP        -0.7977
      5 PB         -1.9145   -0.1124   -5.2153 P.3       1 ACP         1.4910
      6 O1B        -2.5345   -0.4109   -3.8699 O.co2     1 ACP        -0.8292
      7 O2B        -2.7411    0.0068   -6.4747 O.co2     1 ACP        -0.8292
      8 C3B        -0.6283   -1.4054   -5.5242 C.3       1 ACP        -0.6453
      9 PA         -1.2327    2.6960   -4.6321 P.3       1 ACP         1.7996
     10 O1A        -2.2358    3.4103   -5.4908 O.2       1 ACP        -0.8588
     11 O2A         0.2288    3.3888   -4.5953 O.3       1 ACP        -0.8037
     12 O3A        -0.9223    1.1747   -5.0847 O.3       1 ACP        -0.7988
     13 O5'        -1.6512    2.5329   -3.0776 O.3       1 ACP        -0.5960
     14 C5'        -0.7794    1.8744   -2.1748 C.3       1 ACP         0.1917
     15 C4'        -0.9699    2.4597   -0.7819 C.3       1 ACP         0.0908
     16 O4'        -2.1475    1.8640   -0.2014 O.3       1 ACP        -0.4111
     17 C3'         0.1697    2.1347    0.1695 C.3       1 ACP         0.0927
     18 O3'         0.1809    3.0982    1.2223 O.3       1 ACP        -0.6127
     19 C2'        -0.2543    0.7880    0.7187 C.3       1 ACP         0.1095
     20 O2'         0.3606    0.4944    1.9582 O.3       1 ACP        -0.5953
     21 C1'        -1.7682    0.9516    0.8548 C.3       1 ACP         0.4273
     22 N9         -2.5926   -0.2553    0.7436 N.pl3     1 ACP        -0.6934
     23 C8         -3.8700   -0.3163    0.2529 C.ar      1 ACP         0.5422
     24 N7         -4.3522   -1.5414    0.2751 N.2       1 ACP        -0.5596
     25 C5         -3.3434   -2.3070    0.8036 C.ar      1 ACP        -0.2259
     26 C6         -3.2433   -3.6673    1.0777 C.ar      1 ACP         0.7526
     27 N6         -4.3152   -4.5349    0.8066 N.pl3     1 ACP        -0.9660
     28 N1         -2.0949   -4.1491    1.6112 N.ar      1 ACP        -0.8027
     29 C2         -1.0966   -3.2647    1.8500 C.ar      1 ACP         0.6758
     30 N3         -1.0746   -1.9321    1.6291 N.ar      1 ACP        -0.7221
     31 C4         -2.2390   -1.5249    1.1020 C.ar      1 ACP         0.5858
     32 HOG2        1.8928   -2.9367   -5.9221 H         1 ACP         0.4705
     33 HOG3        0.6887   -2.4422   -2.3169 H         1 ACP         0.4705
     34 H3B1       -0.2306   -1.2016   -6.5248 H         1 ACP         0.1189
     35 H3B2       -1.1661   -2.3585   -5.5830 H         1 ACP         0.1189
     36 HOA2        0.7268    3.4900   -5.4343 H         1 ACP         0.4679
     37 H5'1       -1.0110    0.8043   -2.1746 H         1 ACP         0.0587
     38 H5'2        0.2528    2.0159   -2.5111 H         1 ACP         0.0587
     39 H4'        -1.1469    3.5409   -0.8523 H         1 ACP         0.0938
     40 H3'         1.1601    2.1310   -0.2934 H         1 ACP         0.0597
     41 HO3'        0.3098    3.9616    0.8017 H         1 ACP         0.4554
     42 H2'        -0.0024   -0.0091    0.0062 H         1 ACP         0.0710
     43 HO2'        1.3225    0.4909    1.8095 H         1 ACP         0.4360
     44 H1'        -2.0584    1.4255    1.8301 H         1 ACP         0.1247
     45 H8         -4.3937    0.5597   -0.1045 H         1 ACP         0.0875
     46 HN61       -5.1761   -4.1600    0.4557 H         1 ACP         0.4433
     47 HN62       -4.2402   -5.5032    1.0550 H         1 ACP         0.4433
     48 H2         -0.1923   -3.6849    2.2775 H         1 ACP         0.0459
@<TRIPOS>BOND
     1    1    2 2
     2    1    3 1
     3    1    4 1
     4    1    8 1
     5    3   32 1
     6    4   33 1
     7    5    6 2
     8    5    7 1
     9    5    8 1
    10    5   12 1
    11    8   34 1
    12    8   35 1
    13    9   10 2
    14    9   11 1
    15    9   12 1
    16    9   13 1
    17   11   36 1
    18   13   14 1
    19   14   15 1
    20   14   37 1
    21   14   38 1
    22   15   16 1
    23   15   17 1
    24   15   39 1
    25   16   21 1
    26   17   18 1
    27   17   19 1
    28   17   40 1
    29   18   41 1
    30   19   20 1
    31   19   21 1
    32   19   42 1
    33   20   43 1
    34   21   22 1
    35   21   44 1
    36   22   23 ar
    37   22   31 ar
    38   23   24 ar
    39   23   45 1
    40   24   25 ar
    41   25   26 ar
    42   25   31 ar
    43   26   27 1
    44   26   28 ar
    45   27   46 1
    46   27   47 1
    47   28   29 ar
    48   29   30 ar
    49   29   48 1
    50   30   31 ar
@<TRIPOS>SUBSTRUCTURE
     1 ACP         1 GROUP 0 A     ****
@<TRIPOS>MOLECULE
[[5-(6-aminopurin-9-yl)-3,4-dihydroxy-tetrahydrofuran-2-yl]methoxy-hydroxy-phosphoryl]oxy-(phosphonomethyl)phosphinate
   48    50     1     0     0
SMALL
USER_CHARGES

@<TRIPOS>ATOM
      1 PG         -1.2038    7.2383    0.6564 P.3       1 ACP         1.6292
      2 O1G        -0.4927    6.1783    1.4426 O.2       1 ACP        -0.8674
      3 O2G        -2.4656    7.9242    1.3963 O.3       1 ACP        -0.7977
      4 O3G        -0.2949    8.4966    0.2089 O.3       1 ACP        -0.7977
      5 PB         -3.1727    5.3187   -0.9933 P.3       1 ACP         1.4910
      6 O1B        -3.5101    5.1153   -2.4522 O.co2     1 ACP        -0.8292
      7 O2B        -4.2279    5.6333    0.0416 O.co2     1 ACP        -0.8292
      8 C3B        -1.9030    6.6611   -0.9070 C.3       1 ACP        -0.6453
      9 PA         -2.5393    2.4968   -0.4201 P.3       1 ACP         1.7996
     10 O1A        -2.8231    1.8710   -1.7548 O.2       1 ACP        -0.8588
     11 O2A        -3.7479    2.3698    0.6478 O.3       1 ACP        -0.8037
     12 O3A        -2.2418    4.0857   -0.4722 O.3       1 ACP        -0.7988
     13 O5'        -1.2435    1.9111    0.3519 O.3       1 ACP        -0.5960
     14 C5'        -0.8811    2.4285    1.6206 C.3       1 ACP         0.1917
     15 C4'        -0.1994    1.3333    2.4288 C.3       1 ACP         0.0908
     16 O4'        -1.1285    0.2356    2.5840 O.3       1 ACP        -0.4111
     17 C3'         1.0324    0.7610    1.7344 C.3       1 ACP         0.0927
     18 O3'         1.9175    0.2377    2.7247 O.3       1 ACP        -0.6127
     19 C2'         0.4468   -0.3802    0.9263 C.3       1 ACP         0.1095
     20 O2'         1.3993   -1.3703    0.5961 O.3       1 ACP        -0.5953
     21 C1'        -0.6159   -0.9100    1.8769 C.3       1 ACP         0.4273
     22 N9         -1.7127   -1.6108    1.2130 N.pl3     1 ACP        -0.6934
     23 C8         -3.0342   -1.2519    1.2439 C.ar      1 ACP         0.5422
     24 N7         -3.7886   -2.0756    0.5467 N.2       1 ACP        -0.5596
     25 C5         -2.9179   -3.0087    0.0426 C.ar      1 ACP        -0.2259
     26 C6         -3.1045   -4.1262   -0.7649 C.ar      1 ACP         0.7526
     27 N6         -4.3870   -4.4763   -1.2206 N.pl3     1 ACP        -0.9660
     28 N1         -2.0306   -4.8769   -1.1094 N.ar      1 ACP        -0.8027
     29 C2         -0.8199   -4.4895   -0.6402 C.ar      1 ACP         0.6758
     30 N3         -0.5140   -3.4335    0.1448 N.ar      1 ACP        -0.7221
     31 C4         -1.6202   -2.7371    0.4460 C.ar      1 ACP         0.5858
     32 HOG2       -2.9682    8.6245    0.9281 H         1 ACP         0.4705
     33 HOG3        0.1377    9.0406    0.9011 H         1 ACP         0.4705
     34 H3B1       -2.3512    7.5316   -1.3992 H         1 ACP         0.1189
     35 H3B2       -1.0709    6.3308   -1.5392 H         1 ACP         0.1189
     36 HOA2       -4.0551    1.4766    0.9123 H         1 ACP         0.4679
     37 H5'1       -0.2031    3.2762    1.4777 H         1 ACP         0.0587
     38 H5'2       -1.7839    2.7764    2.1331 H         1 ACP         0.0587
     39 H4'         0.0402    1.7079    3.4342 H         1 ACP         0.0938
     40 H3'         1.5907    1.4859    1.1353 H         1 ACP         0.0597
     41 HO3'        2.6839   -0.1150    2.2479 H         1 ACP         0.4554
     42 H2'        -0.0017    0.0018    0.0005 H         1 ACP         0.0710
     43 HO2'        2.0953   -0.9375    0.0709 H         1 ACP         0.4360
     44 H1'        -0.1998   -1.6319    2.6178 H         1 ACP         0.1247
     45 H8         -3.3847   -0.3852    1.7876 H         1 ACP         0.0875
     46 HN61       -5.1798   -3.9409   -0.9211 H         1 ACP         0.4433
     47 HN62       -4.5065   -5.3114   -1.7621 H         1 ACP         0.4433
     48 H2          0.0171   -5.1133   -0.9354 H         1 ACP         0.0459
@<TRIPOS>BOND
     1    1    2 2
     2    1    3 1
     3    1    4 1
     4    1    8 1
     5    3   32 1
     6    4   33 1
     7    5    6 2
     8    5    7 1
     9    5    8 1
    10    5   12 1
    11    8   34 1
    12    8   35 1
    13    9   10 2
    14    9   11 1
    15    9   12 1
    16    9   13 1
    17   11   36 1
    18   13   14 1
    19   14   15 1
    20   14   37 1
    21   14   38 1
    22   15   16 1
    23   15   17 1
    24   15   39 1
    25   16   21 1
    26   17   18 1
    27   17   19 1
    28   17   40 1
    29   18   41 1
    30   19   20 1
    31   19   21 1
    32   19   42 1
    33   20   43 1
    34   21   22 1
    35   21   44 1
    36   22   23 ar
    37   22   31 ar
    38   23   24 ar
    39   23   45 1
    40   24   25 ar
    41   25   26 ar
    42   25   31 ar
    43   26   27 1
    44   26   28 ar
    45   27   46 1
    46   27   47 1
    47   28   29 ar
    48   29   30 ar
    49   29   48 1
    50   30   31 ar
@<TRIPOS>SUBSTRUCTURE
     1 ACP         1 GROUP 0 A     ****
@<TRIPOS>MOLECULE
[[5-(6-aminopurin-9-yl)-3,4-dihydroxy-tetrahydrofuran-2-yl]methoxy-hydroxy-phosphoryl]oxy-(phosphonomethyl)phosphinate
   48    50     1     0     0
SMALL
USER_CHARGES

@<TRIPOS>ATOM
      1 PG         -1.8741    4.2408   -2.8401 P.3       1 ACP         1.6292
      2 O1G        -2.2436    3.6141   -4.1509 O.2       1 ACP        -0.8674
      3 O2G        -1.2730    3.2311   -1.7313 O.3       1 ACP        -0.7977
      4 O3G        -0.7707    5.4179   -2.9211 O.3       1 ACP        -0.7977
      5 PB         -3.0530    5.8724   -0.3439 P.3       1 ACP         1.4910
      6 O1B        -4.4103    6.4045    0.0539 O.co2     1 ACP        -0.8292
      7 O2B        -1.8364    6.7629   -0.4448 O.co2     1 ACP        -0.8292
      8 C3B        -3.2530    5.0301   -1.9785 C.3       1 ACP        -0.6453
      9 PA         -2.5516    4.3890    2.1542 P.3       1 ACP         1.7996
     10 O1A        -3.7879    4.7308    2.9341 O.2       1 ACP        -0.8588
     11 O2A        -1.2616    5.2960    2.5158 O.3       1 ACP        -0.8037
     12 O3A        -2.6991    4.5573    0.5525 O.3       1 ACP        -0.7988
     13 O5'        -2.0397    2.8622    2.3121 O.3       1 ACP        -0.5960
     14 C5'        -0.8811    2.4285    1.6206 C.3       1 ACP         0.1917
     15 C4'        -0.1994    1.3333    2.4288 C.3       1 ACP         0.0908
     16 O4'        -1.1285    0.2356    2.5840 O.3       1 ACP        -0.4111
     17 C3'         1.0324    0.7610    1.7344 C.3       1 ACP         0.0927
     18 O3'         1.9175    0.2377    2.7247 O.3       1 ACP        -0.6127
     19 C2'         0.4468   -0.3802    0.9263 C.3       1 ACP         0.1095
     20 O2'         1.3993   -1.3703    0.5961 O.3       1 ACP        -0.5953
     21 C1'        -0.6159   -0.9100    1.8769 C.3       1 ACP         0.4273
     22 N9         -1.7127   -1.6108    1.2130 N.pl3     1 ACP        -0.6934
     23 C8         -1.6230   -2.3308    0.0513 C.ar      1 ACP         0.5422
     24 N7         -2.7800   -2.8517   -0.3004 N.2       1 ACP        -0.5596
     25 C5         -3.6574   -2.4511    0.6758 C.ar      1 ACP        -0.2259
     26 C6         -5.0170   -2.6775    0.8654 C.ar      1 ACP         0.7526
     27 N6         -5.7504   -3.4510   -0.0504 N.pl3     1 ACP        -0.9660
     28 N1         -5.6292   -2.1415    1.9486 N.ar      1 ACP        -0.8027
     29 C2         -4.8703   -1.4055    2.7961 C.ar      1 ACP         0.6758
     30 N3         -3.5527   -1.1170    2.7199 N.ar      1 ACP        -0.7221
     31 C4         -3.0124   -1.6774    1.6275 C.ar      1 ACP         0.5858
     32 HOG2       -1.0141    3.5872   -0.8548 H         1 ACP         0.4705
     33 HOG3        0.1176    5.2127   -3.2833 H         1 ACP         0.4705
     34 H3B1       -3.6662    5.7845   -2.6575 H         1 ACP         0.1189
     35 H3B2       -4.0303    4.2711   -1.8342 H         1 ACP         0.1189
     36 HOA2       -0.9203    5.2897    3.4355 H         1 ACP         0.4679
     37 H5'1       -1.1760    2.0499    0.6365 H         1 ACP         0.0587
     38 H5'2       -0.2073    3.2811    1.4873 H         1 ACP         0.0587
     39 H4'         0.0402    1.7079    3.4342 H         1 ACP         0.0938
     40 H3'         1.5907    1.4859    1.1353 H         1 ACP         0.0597
     41 HO3'        2.6839   -0.1150    2.2479 H         1 ACP         0.4554
     42 H2'        -0.0017    0.0018    0.0005 H         1 ACP         0.0710
     43 HO2'        2.0953   -0.9375    0.0709 H         1 ACP         0.4360
     44 H1'        -0.1998   -1.6319    2.6178 H         1 ACP         0.1247
     45 H8         -0.6932   -2.4401   -0.4900 H         1 ACP         0.0875
     46 HN61       -5.2972   -3.8032   -0.8723 H         1 ACP         0.4433
     47 HN62       -6.7381   -3.5629    0.0791 H         1 ACP         0.4433
     48 H2         -5.3929   -0.9917    3.6520 H         1 ACP         0.0459
@<TRIPOS>BOND
     1    1    2 2
     2    1    3 1
     3    1    4 1
     4    1    8 1
     5    3   32 1
     6    4   33 1
     7    5    6 2
     8    5    7 1
     9    5    8 1
    10    5   12 1
    11    8   34 1
    12    8   35 1
    13    9   10 2
    14    9   11 1
    15    9   12 1
    16    9   13 1
    17   11   36 1
    18   13   14 1
    19   14   15 1
    20   14   37 1
    21   14   38 1
    22   15   16 1
    23   15   17 1
    24   15   39 1
    25   16   21 1
    26   17   18 1
    27   17   19 1
    28   17   40 1
    29   18   41 1
    30   19   20 1
    31   19   21 1
    32   19   42 1
    33   20   43 1
    34   21   22 1
    35   21   44 1
    36   22   23 ar
    37   22   31 ar
    38   23   24 ar
    39   23   45 1
    40   24   25 ar
    41   25   26 ar
    42   25   31 ar
    43   26   27 1
    44   26   28 ar
    45   27   46 1
    46   27   47 1
    47   28   29 ar
    48   29   30 ar
    49   29   48 1
    50   30   31 ar
@<TRIPOS>SUBSTRUCTURE
     1 ACP         1 GROUP 0 A     ****
@<TRIPOS>MOLECULE
[[5-(6-aminopurin-9-yl)-3,4-dihydroxy-tetrahydrofuran-2-yl]methoxy-hydroxy-phosphoryl]oxy-(phosphonomethyl)phosphinate
   48    50     1     0     0
SMALL
USER_CHARGES

@<TRIPOS>ATOM
      1 PG         -1.3524   -2.3548   -5.3509 P.3       1 ACP         1.6292
      2 O1G        -2.5747   -2.5482   -6.1970 O.2       1 ACP        -0.8674
      3 O2G        -1.6125   -1.7212   -3.8877 O.3       1 ACP        -0.7977
      4 O3G        -0.5051   -3.6947   -5.0403 O.3       1 ACP        -0.7977
      5 PB         -0.4855    0.5196   -6.4777 P.3       1 ACP         1.4910
      6 O1B        -1.6124    0.5210   -7.4845 O.co2     1 ACP        -0.8292
      7 O2B         0.8362    1.2009   -6.7466 O.co2     1 ACP        -0.8292
      8 C3B        -0.1185   -1.2468   -6.0695 C.3       1 ACP        -0.6453
      9 PA         -1.7713    2.3561   -4.5629 P.3       1 ACP         1.7996
     10 O1A        -3.0473    2.6678   -5.2898 O.2       1 ACP        -0.8588
     11 O2A        -0.6107    3.4686   -4.7436 O.3       1 ACP        -0.8037
     12 O3A        -1.0553    0.9802   -5.0212 O.3       1 ACP        -0.7988
     13 O5'        -1.9198    2.1711   -2.9623 O.3       1 ACP        -0.5960
     14 C5'        -0.7794    1.8744   -2.1748 C.3       1 ACP         0.1917
     15 C4'        -0.9699    2.4597   -0.7819 C.3       1 ACP         0.0908
     16 O4'        -2.1475    1.8640   -0.2014 O.3       1 ACP        -0.4111
     17 C3'         0.1697    2.1347    0.1695 C.3       1 ACP         0.0927
     18 O3'         0.1809    3.0982    1.2223 O.3       1 ACP        -0.6127
     19 C2'        -0.2543    0.7880    0.7187 C.3       1 ACP         0.1095
     20 O2'         0.3606    0.4944    1.9582 O.3       1 ACP        -0.5953
     21 C1'        -1.7682    0.9516    0.8548 C.3       1 ACP         0.4273
     22 N9         -2.5926   -0.2553    0.7436 N.pl3     1 ACP        -0.6934
     23 C8         -2.1324   -1.5302    0.5457 C.ar      1 ACP         0.5422
     24 N7         -3.1118   -2.4085    0.4915 N.2       1 ACP        -0.5596
     25 C5         -4.2561   -1.6704    0.6612 C.ar      1 ACP        -0.2259
     26 C6         -5.6018   -2.0215    0.6998 C.ar      1 ACP         0.7526
     27 N6         -5.9988   -3.3610    0.5479 N.pl3     1 ACP        -0.9660
     28 N1         -6.5303   -1.0528    0.8871 N.ar      1 ACP        -0.8027
     29 C2         -6.0872    0.2199    1.0276 C.ar      1 ACP         0.6758
     30 N3         -4.8179    0.6820    1.0081 N.ar      1 ACP        -0.7221
     31 C4         -3.9544   -0.3272    0.8198 C.ar      1 ACP         0.5858
     32 HOG2       -2.0235   -0.8330   -3.8204 H         1 ACP         0.4705
     33 HOG3       -0.9417   -4.4339   -4.5658 H         1 ACP         0.4705
     34 H3B1        0.7340   -1.2261   -5.3812 H         1 ACP         0.1189
     35 H3B2        0.2345   -1.7049   -7.0005 H         1 ACP         0.1189
     36 HOA2       -0.2786    3.6652   -5.6454 H         1 ACP         0.4679
     37 H5'1       -0.6593    0.7876   -2.1195 H         1 ACP         0.0587
     38 H5'2        0.1050    2.3070   -2.6537 H         1 ACP         0.0587
     39 H4'        -1.1469    3.5409   -0.8523 H         1 ACP         0.0938
     40 H3'         1.1601    2.1310   -0.2934 H         1 ACP         0.0597
     41 HO3'        0.3098    3.9616    0.8017 H         1 ACP         0.4554
     42 H2'        -0.0024   -0.0091    0.0062 H         1 ACP         0.0710
     43 HO2'        1.3225    0.4909    1.8095 H         1 ACP         0.4360
     44 H1'        -2.0584    1.4255    1.8301 H         1 ACP         0.1247
     45 H8         -1.0791   -1.7555    0.4498 H         1 ACP         0.0875
     46 HN61       -5.3067   -4.0623    0.3633 H         1 ACP         0.4433
     47 HN62       -6.9754   -3.5867    0.5317 H         1 ACP         0.4433
     48 H2         -6.8575    0.9694    1.1755 H         1 ACP         0.0459
@<TRIPOS>BOND
     1    1    2 2
     2    1    3 1
     3    1    4 1
     4    1    8 1
     5    3   32 1
     6    4   33 1
     7    5    6 2
     8    5    7 1
     9    5    8 1
    10    5   12 1
    11    8   34 1
    12    8   35 1
    13    9   10 2
    14    9   11 1
    15    9   12 1
    16    9   13 1
    17   11   36 1
    18   13   14 1
    19   14   15 1
    20   14   37 1
    21   14   38 1
    22   15   16 1
    23   15   17 1
    24   15   39 1
    25   16   21 1
    26   17   18 1
    27   17   19 1
    28   17   40 1
    29   18   41 1
    30   19   20 1
    31   19   21 1
    32   19   42 1
    33   20   43 1
    34   21   22 1
    35   21   44 1
    36   22   23 ar
    37   22   31 ar
    38   23   24 ar
    39   23   45 1
    40   24   25 ar
    41   25   26 ar
    42   25   31 ar
    43   26   27 1
    44   26   28 ar
    45   27   46 1
    46   27   47 1
    47   28   29 ar
    48   29   30 ar
    49   29   48 1
    50   30   31 ar
@<TRIPOS>SUBSTRUCTURE
     1 ACP         1 GROUP 0 A     ****
@<TRIPOS>MOLECULE
[[5-(6-aminopurin-9-yl)-3,4-dihydroxy-tetrahydrofuran-2-yl]methoxy-hydroxy-phosphoryl]oxy-(phosphonomethyl)phosphinate
   48    50     1     0     0
SMALL
USER_CHARGES

@<TRIPOS>ATOM
      1 PG          1.1960    6.6547    0.2088 P.3       1 ACP         1.6292
      2 O1G         0.4233    7.7499    0.8803 O.2       1 ACP        -0.8674
      3 O2G         2.7507    6.9804   -0.0862 O.3       1 ACP        -0.7977
      4 O3G         1.2460    5.2514    1.0076 O.3       1 ACP        -0.7977
      5 PB         -1.1591    5.5315   -1.6552 P.3       1 ACP         1.4910
      6 O1B        -1.3263    5.2482   -3.1302 O.co2     1 ACP        -0.8292
      7 O2B        -2.0946    6.4463   -0.8994 O.co2     1 ACP        -0.8292
      8 C3B         0.5562    6.1804   -1.4135 C.3       1 ACP        -0.6453
      9 PA         -1.9903    2.8601   -0.7251 P.3       1 ACP         1.7996
     10 O1A        -2.3239    2.2013   -2.0321 O.2       1 ACP        -0.8588
     11 O2A        -3.2682    3.4570    0.0674 O.3       1 ACP        -0.8037
     12 O3A        -0.9912    4.1261   -0.8460 O.3       1 ACP        -0.7988
     13 O5'        -1.2435    1.9111    0.3519 O.3       1 ACP        -0.5960
     14 C5'        -0.8811    2.4285    1.6206 C.3       1 ACP         0.1917
     15 C4'        -0.1994    1.3333    2.4288 C.3       1 ACP         0.0908
     16 O4'        -1.1285    0.2356    2.5840 O.3       1 ACP        -0.4111
     17 C3'         1.0324    0.7610    1.7344 C.3       1 ACP         0.0927
     18 O3'         1.9175    0.2377    2.7247 O.3       1 ACP        -0.6127
     19 C2'         0.4468   -0.3802    0.9263 C.3       1 ACP         0.1095
     20 O2'         1.3993   -1.3703    0.5961 O.3       1 ACP        -0.5953
     21 C1'        -0.6159   -0.9100    1.8769 C.3       1 ACP         0.4273
     22 N9         -1.7127   -1.6108    1.2130 N.pl3     1 ACP        -0.6934
     23 C8         -1.6011   -2.7426    0.4497 C.ar      1 ACP         0.5422
     24 N7         -2.7657   -3.1449   -0.0147 N.2       1 ACP        -0.5596
     25 C5         -3.6708   -2.2337    0.4686 C.ar      1 ACP        -0.2259
     26 C6         -5.0501   -2.1167    0.3282 C.ar      1 ACP         0.7526
     27 N6         -5.7760   -3.0497   -0.4318 N.pl3     1 ACP        -0.9660
     28 N1         -5.6892   -1.0882    0.9359 N.ar      1 ACP        -0.8027
     29 C2         -4.9364   -0.2212    1.6553 C.ar      1 ACP         0.6758
     30 N3         -3.6016   -0.2290    1.8634 N.ar      1 ACP        -0.7221
     31 C4         -3.0352   -1.2703    1.2354 C.ar      1 ACP         0.5858
     32 HOG2        3.3442    7.1874    0.6668 H         1 ACP         0.4705
     33 HOG3        1.7377    4.4986    0.6156 H         1 ACP         0.4705
     34 H3B1        0.6394    7.0604   -2.0613 H         1 ACP         0.1189
     35 H3B2        1.2281    5.4179   -1.8237 H         1 ACP         0.1189
     36 HOA2       -3.9880    2.8465    0.3345 H         1 ACP         0.4679
     37 H5'1       -0.2031    3.2762    1.4777 H         1 ACP         0.0587
     38 H5'2       -1.7839    2.7764    2.1331 H         1 ACP         0.0587
     39 H4'         0.0402    1.7079    3.4342 H         1 ACP         0.0938
     40 H3'         1.5907    1.4859    1.1353 H         1 ACP         0.0597
     41 HO3'        2.6839   -0.1150    2.2479 H         1 ACP         0.4554
     42 H2'        -0.0017    0.0018    0.0005 H         1 ACP         0.0710
     43 HO2'        2.0953   -0.9375    0.0709 H         1 ACP         0.4360
     44 H1'        -0.1998   -1.6319    2.6178 H         1 ACP         0.1247
     45 H8         -0.6507   -3.2259    0.2692 H         1 ACP         0.0875
     46 HN61       -5.2868   -3.7791   -0.9150 H         1 ACP         0.4433
     47 HN62       -6.7619   -2.9208   -0.5594 H         1 ACP         0.4433
     48 H2         -5.4806    0.5898    2.1277 H         1 ACP         0.0459
@<TRIPOS>BOND
     1    1    2 2
     2    1    3 1
     3    1    4 1
     4    1    8 1
     5    3   32 1
     6    4   33 1
     7    5    6 2
     8    5    7 1
     9    5    8 1
    10    5   12 1
    11    8   34 1
    12    8   35 1
    13    9   10 2
    14    9   11 1
    15    9   12 1
    16    9   13 1
    17   11   36 1
    18   13   14 1
    19   14   15 1
    20   14   37 1
    21   14   38 1
    22   15   16 1
    23   15   17 1
    24   15   39 1
    25   16   21 1
    26   17   18 1
    27   17   19 1
    28   17   40 1
    29   18   41 1
    30   19   20 1
    31   19   21 1
    32   19   42 1
    33   20   43 1
    34   21   22 1
    35   21   44 1
    36   22   23 ar
    37   22   31 ar
    38   23   24 ar
    39   23   45 1
    40   24   25 ar
    41   25   26 ar
    42   25   31 ar
    43   26   27 1
    44   26   28 ar
    45   27   46 1
    46   27   47 1
    47   28   29 ar
    48   29   30 ar
    49   29   48 1
    50   30   31 ar
@<TRIPOS>SUBSTRUCTURE
     1 ACP         1 GROUP 0 A     ****
@<TRIPOS>MOLECULE
[[5-(6-aminopurin-9-yl)-3,4-dihydroxy-tetrahydrofuran-2-yl]methoxy-hydroxy-phosphoryl]oxy-(phosphonomethyl)phosphinate
   48    50     1     0     0
SMALL
USER_CHARGES

@<TRIPOS>ATOM
      1 PG          0.9014    6.7883    0.2125 P.3       1 ACP         1.6292
      2 O1G         2.2756    6.8932    0.8026 O.2       1 ACP        -0.8674
      3 O2G         0.6785    7.5828   -1.1764 O.3       1 ACP        -0.7977
      4 O3G         0.4036    5.2885   -0.1227 O.3       1 ACP        -0.7977
      5 PB         -0.7559    6.7452    2.9574 P.3       1 ACP         1.4910
      6 O1B        -1.9145    7.5276    3.5311 O.co2     1 ACP        -0.8292
      7 O2B         0.5707    6.6298    3.6716 O.co2     1 ACP        -0.8292
      8 C3B        -0.4140    7.4294    1.2732 C.3       1 ACP        -0.6453
      9 PA         -1.9391    4.0774    3.3757 P.3       1 ACP         1.7996
     10 O1A        -3.2310    4.4475    4.0450 O.2       1 ACP        -0.8588
     11 O2A        -0.7613    3.6379    4.3940 O.3       1 ACP        -0.8037
     12 O3A        -1.2682    5.2646    2.5062 O.3       1 ACP        -0.7988
     13 O5'        -2.0397    2.8622    2.3121 O.3       1 ACP        -0.5960
     14 C5'        -0.8811    2.4285    1.6206 C.3       1 ACP         0.1917
     15 C4'        -0.1994    1.3333    2.4288 C.3       1 ACP         0.0908
     16 O4'        -1.1285    0.2356    2.5840 O.3       1 ACP        -0.4111
     17 C3'         1.0324    0.7610    1.7344 C.3       1 ACP         0.0927
     18 O3'         1.9175    0.2377    2.7247 O.3       1 ACP        -0.6127
     19 C2'         0.4468   -0.3802    0.9263 C.3       1 ACP         0.1095
     20 O2'         1.3993   -1.3703    0.5961 O.3       1 ACP        -0.5953
     21 C1'        -0.6159   -0.9100    1.8769 C.3       1 ACP         0.4273
     22 N9         -1.7127   -1.6108    1.2130 N.pl3     1 ACP        -0.6934
     23 C8         -2.0877   -2.9101    1.4304 C.ar      1 ACP         0.5422
     24 N7         -3.1152   -3.2613    0.6857 N.2       1 ACP        -0.5596
     25 C5         -3.4186   -2.1409   -0.0462 C.ar      1 ACP        -0.2259
     26 C6         -4.3953   -1.8809   -1.0023 C.ar      1 ACP         0.7526
     27 N6         -5.3118   -2.8767   -1.3812 N.pl3     1 ACP        -0.9660
     28 N1         -4.4538   -0.6507   -1.5667 N.ar      1 ACP        -0.8027
     29 C2         -3.5442    0.2679   -1.1609 C.ar      1 ACP         0.6758
     30 N3         -2.5561    0.1361   -0.2491 N.ar      1 ACP        -0.7221
     31 C4         -2.5568   -1.1019    0.2674 C.ar      1 ACP         0.5858
     32 HOG2        1.2291    7.3465   -1.9530 H         1 ACP         0.4705
     33 HOG3       -0.4880    5.1591   -0.5107 H         1 ACP         0.4705
     34 H3B1       -0.2190    8.4983    1.4161 H         1 ACP         0.1189
     35 H3B2       -1.3553    7.3487    0.7176 H         1 ACP         0.1189
     36 HOA2       -0.4545    4.2797    5.0694 H         1 ACP         0.4679
     37 H5'1       -1.1760    2.0499    0.6365 H         1 ACP         0.0587
     38 H5'2       -0.2073    3.2811    1.4873 H         1 ACP         0.0587
     39 H4'         0.0402    1.7079    3.4342 H         1 ACP         0.0938
     40 H3'         1.5907    1.4859    1.1353 H         1 ACP         0.0597
     41 HO3'        2.6839   -0.1150    2.2479 H         1 ACP         0.4554
     42 H2'        -0.0017    0.0018    0.0005 H         1 ACP         0.0710
     43 HO2'        2.0953   -0.9375    0.0709 H         1 ACP         0.4360
     44 H1'        -0.1998   -1.6319    2.6178 H         1 ACP         0.1247
     45 H8         -1.5778   -3.5473    2.1399 H         1 ACP         0.0875
     46 HN61       -5.2294   -3.7965   -0.9914 H         1 ACP         0.4433
     47 HN62       -5.9774   -2.6837   -2.1055 H         1 ACP         0.4433
     48 H2         -3.6201    1.2414   -1.6336 H         1 ACP         0.0459
@<TRIPOS>BOND
     1    1    2 2
     2    1    3 1
     3    1    4 1
     4    1    8 1
     5    3   32 1
     6    4   33 1
     7    5    6 2
     8    5    7 1
     9    5    8 1
    10    5   12 1
    11    8   34 1
    12    8   35 1
    13    9   10 2
    14    9   11 1
    15    9   12 1
    16    9   13 1
    17   11   36 1
    18   13   14 1
    19   14   15 1
    20   14   37 1
    21   14   38 1
    22   15   16 1
    23   15   17 1
    24   15   39 1
    25   16   21 1
    26   17   18 1
    27   17   19 1
    28   17   40 1
    29   18   41 1
    30   19   20 1
    31   19   21 1
    32   19   42 1
    33   20   43 1
    34   21   22 1
    35   21   44 1
    36   22   23 ar
    37   22   31 ar
    38   23   24 ar
    39   23   45 1
    40   24   25 ar
    41   25   26 ar
    42   25   31 ar
    43   26   27 1
    44   26   28 ar
    45   27   46 1
    46   27   47 1
    47   28   29 ar
    48   29   30 ar
    49   29   48 1
    50   30   31 ar
@<TRIPOS>SUBSTRUCTURE
     1 ACP         1 GROUP 0 A     ****
@<TRIPOS>MOLECULE
[[5-(6-aminopurin-9-yl)-3,4-dihydroxy-tetrahydrofuran-2-yl]methoxy-hydroxy-phosphoryl]oxy-(phosphonomethyl)phosphinate
   48    50     1     0     0
SMALL
USER_CHARGES

@<TRIPOS>ATOM
      1 PG          0.0499    7.3858   -1.6082 P.3       1 ACP         1.6292
      2 O1G         0.4963    8.7046   -1.0526 O.2       1 ACP        -0.8674
      3 O2G        -1.5112    7.0316   -1.3897 O.3       1 ACP        -0.7977
      4 O3G         0.2647    7.1948   -3.1979 O.3       1 ACP        -0.7977
      5 PB          0.5298    4.2205   -1.4255 P.3       1 ACP         1.4910
      6 O1B         1.4326    3.3099   -0.6258 O.co2     1 ACP        -0.8292
      7 O2B         0.5016    4.2028   -2.9363 O.co2     1 ACP        -0.8292
      8 C3B         0.9023    5.9558   -0.9046 C.3       1 ACP        -0.6453
      9 PA         -1.9903    2.8601   -0.7251 P.3       1 ACP         1.7996
     10 O1A        -2.3239    2.2013   -2.0321 O.2       1 ACP        -0.8588
     11 O2A        -3.2682    3.4570    0.0674 O.3       1 ACP        -0.8037
     12 O3A        -0.9912    4.1261   -0.8460 O.3       1 ACP        -0.7988
     13 O5'        -1.2435    1.9111    0.3519 O.3       1 ACP        -0.5960
     14 C5'        -0.8811    2.4285    1.6206 C.3       1 ACP         0.1917
     15 C4'        -0.1994    1.3333    2.4288 C.3       1 ACP         0.0908
     16 O4'        -1.1285    0.2356    2.5840 O.3       1 ACP        -0.4111
     17 C3'         1.0324    0.7610    1.7344 C.3       1 ACP         0.0927
     18 O3'         1.9175    0.2377    2.7247 O.3       1 ACP        -0.6127
     19 C2'         0.4468   -0.3802    0.9263 C.3       1 ACP         0.1095
     20 O2'         1.3993   -1.3703    0.5961 O.3       1 ACP        -0.5953
     21 C1'        -0.6159   -0.9100    1.8769 C.3       1 ACP         0.4273
     22 N9         -1.7127   -1.6108    1.2130 N.pl3     1 ACP        -0.6934
     23 C8         -1.6011   -2.7426    0.4497 C.ar      1 ACP         0.5422
     24 N7         -2.7657   -3.1449   -0.0147 N.2       1 ACP        -0.5596
     25 C5         -3.6708   -2.2337    0.4686 C.ar      1 ACP        -0.2259
     26 C6         -5.0501   -2.1167    0.3282 C.ar      1 ACP         0.7526
     27 N6         -5.7760   -3.0497   -0.4318 N.pl3     1 ACP        -0.9660
     28 N1         -5.6892   -1.0882    0.9359 N.ar      1 ACP        -0.8027
     29 C2         -4.9364   -0.2212    1.6553 C.ar      1 ACP         0.6758
     30 N3         -3.6016   -0.2290    1.8634 N.ar      1 ACP        -0.7221
     31 C4         -3.0352   -1.2703    1.2354 C.ar      1 ACP         0.5858
     32 HOG2       -1.8582    6.1808   -1.7331 H         1 ACP         0.4705
     33 HOG3       -0.1797    7.8140   -3.8154 H         1 ACP         0.4705
     34 H3B1        1.9737    6.1006   -1.0835 H         1 ACP         0.1189
     35 H3B2        0.7537    5.9837    0.1809 H         1 ACP         0.1189
     36 HOA2       -3.9880    2.8465    0.3345 H         1 ACP         0.4679
     37 H5'1       -0.2031    3.2762    1.4777 H         1 ACP         0.0587
     38 H5'2       -1.7839    2.7764    2.1331 H         1 ACP         0.0587
     39 H4'         0.0402    1.7079    3.4342 H         1 ACP         0.0938
     40 H3'         1.5907    1.4859    1.1353 H         1 ACP         0.0597
     41 HO3'        2.6839   -0.1150    2.2479 H         1 ACP         0.4554
     42 H2'        -0.0017    0.0018    0.0005 H         1 ACP         0.0710
     43 HO2'        2.0953   -0.9375    0.0709 H         1 ACP         0.4360
     44 H1'        -0.1998   -1.6319    2.6178 H         1 ACP         0.1247
     45 H8         -0.6507   -3.2259    0.2692 H         1 ACP         0.0875
     46 HN61       -5.2868   -3.7791   -0.9150 H         1 ACP         0.4433
     47 HN62       -6.7619   -2.9208   -0.5594 H         1 ACP         0.4433
     48 H2         -5.4806    0.5898    2.1277 H         1 ACP         0.0459
@<TRIPOS>BOND
     1    1    2 2
     2    1    3 1
     3    1    4 1
     4    1    8 1
     5    3   32 1
     6    4   33 1
     7    5    6 2
     8    5    7 1
     9    5    8 1
    10    5   12 1
    11    8   34 1
    12    8   35 1
    13    9   10 2
    14    9   11 1
    15    9   12 1
    16    9   13 1
    17   11   36 1
    18   13   14 1
    19   14   15 1
    20   14   37 1
    21   14   38 1
    22   15   16 1
    23   15   17 1
    24   15   39 1
    25   16   21 1
    26   17   18 1
    27   17   19 1
    28   17   40 1
    29   18   41 1
    30   19   20 1
    31   19   21 1
    32   19   42 1
    33   20   43 1
    34   21   22 1
    35   21   44 1
    36   22   23 ar
    37   22   31 ar
    38   23   24 ar
    39   23   45 1
    40   24   25 ar
    41   25   26 ar
    42   25   31 ar
    43   26   27 1
    44   26   28 ar
    45   27   46 1
    46   27   47 1
    47   28   29 ar
    48   29   30 ar
    49   29   48 1
    50   30   31 ar
@<TRIPOS>SUBSTRUCTURE
     1 ACP         1 GROUP 0 A     ****
@<TRIPOS>MOLECULE
[[5-(6-aminopurin-9-yl)-3,4-dihydroxy-tetrahydrofuran-2-yl]methoxy-hydroxy-phosphoryl]oxy-(phosphonomethyl)phosphinate
   48    50     1     0     0
SMALL
USER_CHARGES

@<TRIPOS>ATOM
      1 PG          6.8540   -2.1268    2.1739 P.3       1 ACP         1.6292
      2 O1G         5.4165   -1.8180    1.8815 O.2       1 ACP        -0.8674
      3 O2G         7.1772   -2.5560    3.6975 O.3       1 ACP        -0.7977
      4 O3G         7.4988   -3.3208    1.2972 O.3       1 ACP        -0.7977
      5 PB          8.1785    0.0463    0.2230 P.3       1 ACP         1.4910
      6 O1B         8.6503   -1.0248   -0.7329 O.co2     1 ACP        -0.8292
      7 O2B         8.9406    1.3348    0.4291 O.co2     1 ACP        -0.8292
      8 C3B         7.9850   -0.7475    1.8824 C.3       1 ACP        -0.6453
      9 PA          5.8746    0.9206   -1.3958 P.3       1 ACP         1.7996
     10 O1A         6.0243    0.0318   -2.5963 O.2       1 ACP        -0.8588
     11 O2A         6.4832    2.4075   -1.5854 O.3       1 ACP        -0.8037
     12 O3A         6.6072    0.3762   -0.0606 O.3       1 ACP        -0.7988
     13 O5'         4.3521    1.1579   -0.9020 O.3       1 ACP        -0.5960
     14 C5'         4.0922    1.9801    0.2227 C.3       1 ACP         0.1917
     15 C4'         2.5944    2.0310    0.4653 C.3       1 ACP         0.0908
     16 O4'         1.9327    2.5740   -0.6889 O.3       1 ACP        -0.4111
     17 C3'         1.9685    0.6634    0.6767 C.3       1 ACP         0.0927
     18 O3'         2.1425    0.1975    1.9977 O.3       1 ACP        -0.6127
     19 C2'         0.5176    0.9128    0.3099 C.3       1 ACP         0.1095
     20 O2'        -0.2103    1.4454    1.4152 O.3       1 ACP        -0.5953
     21 C1'         0.6219    1.9765   -0.7844 C.3       1 ACP         0.4273
     22 N9          0.4237    1.4496   -2.1357 N.pl3     1 ACP        -0.6934
     23 C8         -0.6990    0.8143   -2.5962 C.ar      1 ACP         0.5422
     24 N7         -0.5842    0.4561   -3.8580 N.2       1 ACP        -0.5596
     25 C5          0.6674    0.8775   -4.2308 C.ar      1 ACP        -0.2259
     26 C6          1.3671    0.7929   -5.4304 C.ar      1 ACP         0.7526
     27 N6          0.7907    0.1795   -6.5558 N.pl3     1 ACP        -0.9660
     28 N1          2.6167    1.3114   -5.5022 N.ar      1 ACP        -0.8027
     29 C2          3.1190    1.8905   -4.3849 C.ar      1 ACP         0.6758
     30 N3          2.5420    2.0322   -3.1717 N.ar      1 ACP        -0.7221
     31 C4          1.3113    1.4986   -3.1725 C.ar      1 ACP         0.5858
     32 HOG2        8.1020   -2.7694    3.9453 H         1 ACP         0.4705
     33 HOG3        7.1037   -4.2171    1.3514 H         1 ACP         0.4705
     34 H3B1        7.6949    0.0561    2.5688 H         1 ACP         0.1189
     35 H3B2        8.9880   -1.0741    2.1798 H         1 ACP         0.1189
     36 HOA2        6.1250    2.9792   -2.2976 H         1 ACP         0.4679
     37 H5'1        4.6066    1.5623    1.0942 H         1 ACP         0.0587
     38 H5'2        4.4821    2.9842    0.0261 H         1 ACP         0.0587
     39 H4'         2.3752    2.7029    1.3156 H         1 ACP         0.0938
     40 H3'         2.4336   -0.1217   -0.0016 H         1 ACP         0.0597
     41 HO3'        1.7160   -0.6716    2.0397 H         1 ACP         0.4554
     42 H2'         0.0316    0.0155   -0.0339 H         1 ACP         0.0710
     43 HO2'       -0.1608    0.7921    2.1351 H         1 ACP         0.4360
     44 H1'        -0.1474    2.7798   -0.6651 H         1 ACP         0.1247
     45 H8         -1.5636    0.6429   -1.9696 H         1 ACP         0.0875
     46 HN61       -0.1155   -0.2418   -6.4776 H         1 ACP         0.4433
     47 HN62        1.3291    0.0869   -7.3963 H         1 ACP         0.4433
     48 H2          4.1215    2.2946   -4.4783 H         1 ACP         0.0459
@<TRIPOS>BOND
     1    1    2 2
     2    1    3 1
     3    1    4 1
     4    1    8 1
     5    3   32 1
     6    4   33 1
     7    5    6 2
     8    5    7 1
     9    5    8 1
    10    5   12 1
    11    8   34 1
    12    8   35 1
    13    9   10 2
    14    9   11 1
    15    9   12 1
    16    9   13 1
    17   11   36 1
    18   13   14 1
    19   14   15 1
    20   14   37 1
    21   14   38 1
    22   15   16 1
    23   15   17 1
    24   15   39 1
    25   16   21 1
    26   17   18 1
    27   17   19 1
    28   17   40 1
    29   18   41 1
    30   19   20 1
    31   19   21 1
    32   19   42 1
    33   20   43 1
    34   21   22 1
    35   21   44 1
    36   22   23 ar
    37   22   31 ar
    38   23   24 ar
    39   23   45 1
    40   24   25 ar
    41   25   26 ar
    42   25   31 ar
    43   26   27 1
    44   26   28 ar
    45   27   46 1
    46   27   47 1
    47   28   29 ar
    48   29   30 ar
    49   29   48 1
    50   30   31 ar
@<TRIPOS>SUBSTRUCTURE
     1 ACP         1 GROUP 0 A     ****
@<TRIPOS>MOLECULE
[[5-(6-aminopurin-9-yl)-3,4-dihydroxy-tetrahydrofuran-2-yl]methoxy-hydroxy-phosphoryl]oxy-(phosphonomethyl)phosphinate
   48    50     1     0     0
SMALL
USER_CHARGES

@<TRIPOS>ATOM
      1 PG          8.3317    1.8071   -4.0038 P.3       1 ACP         1.6292
      2 O1G         8.6068    0.6378   -4.9008 O.2       1 ACP        -0.8674
      3 O2G         8.9039    1.6786   -2.4985 O.3       1 ACP        -0.7977
      4 O3G         8.9159    3.2243   -4.5135 O.3       1 ACP        -0.7977
      5 PB          5.9795    3.5445   -2.6880 P.3       1 ACP         1.4910
      6 O1B         4.4689    3.5175   -2.7220 O.co2     1 ACP        -0.8292
      7 O2B         6.7722    4.7729   -3.0703 O.co2     1 ACP        -0.8292
      8 C3B         6.5759    2.1541   -3.7522 C.3       1 ACP        -0.6453
      9 PA          6.2292    3.5136    0.2496 P.3       1 ACP         1.7996
     10 O1A         6.6927    4.9186    0.5045 O.2       1 ACP        -0.8588
     11 O2A         6.9320    2.3979    1.1869 O.3       1 ACP        -0.8037
     12 O3A         6.5026    2.9775   -1.2516 O.3       1 ACP        -0.7988
     13 O5'         4.6408    3.2691    0.4376 O.3       1 ACP        -0.5960
     14 C5'         4.0922    1.9801    0.2227 C.3       1 ACP         0.1917
     15 C4'         2.5944    2.0310    0.4653 C.3       1 ACP         0.0908
     16 O4'         1.9327    2.5740   -0.6889 O.3       1 ACP        -0.4111
     17 C3'         1.9685    0.6634    0.6767 C.3       1 ACP         0.0927
     18 O3'         2.1425    0.1975    1.9977 O.3       1 ACP        -0.6127
     19 C2'         0.5176    0.9128    0.3099 C.3       1 ACP         0.1095
     20 O2'        -0.2103    1.4454    1.4152 O.3       1 ACP        -0.5953
     21 C1'         0.6219    1.9765   -0.7844 C.3       1 ACP         0.4273
     22 N9          0.4237    1.4496   -2.1357 N.pl3     1 ACP        -0.6934
     23 C8         -0.7736    1.3475   -2.7932 C.ar      1 ACP         0.5422
     24 N7         -0.6356    0.8373   -3.9991 N.2       1 ACP        -0.5596
     25 C5          0.7095    0.5981   -4.1281 C.ar      1 ACP        -0.2259
     26 C6          1.4733    0.0704   -5.1643 C.ar      1 ACP         0.7526
     27 N6          0.8693   -0.3355   -6.3666 N.pl3     1 ACP        -0.9660
     28 N1          2.8130   -0.0482   -5.0009 N.ar      1 ACP        -0.8027
     29 C2          3.3380    0.3602   -3.8204 C.ar      1 ACP         0.6758
     30 N3          2.7052    0.8841   -2.7480 N.ar      1 ACP        -0.7221
     31 C4          1.3867    0.9726   -2.9785 C.ar      1 ACP         0.5858
     32 HOG2        8.7529    2.4148   -1.8680 H         1 ACP         0.4705
     33 HOG3        9.8831    3.3193   -4.6475 H         1 ACP         0.4705
     34 H3B1        6.1369    2.3227   -4.7421 H         1 ACP         0.1189
     35 H3B2        6.1140    1.2456   -3.3492 H         1 ACP         0.1189
     36 HOA2        7.9065    2.2921    1.1487 H         1 ACP         0.4679
     37 H5'1        4.3024    1.6721   -0.8067 H         1 ACP         0.0587
     38 H5'2        4.5673    1.2730    0.9105 H         1 ACP         0.0587
     39 H4'         2.3752    2.7029    1.3156 H         1 ACP         0.0938
     40 H3'         2.4336   -0.1217   -0.0016 H         1 ACP         0.0597
     41 HO3'        1.7160   -0.6716    2.0397 H         1 ACP         0.4554
     42 H2'         0.0316    0.0155   -0.0339 H         1 ACP         0.0710
     43 HO2'       -1.1270    1.5823    1.1180 H         1 ACP         0.4360
     44 H1'        -0.1474    2.7798   -0.6651 H         1 ACP         0.1247
     45 H8         -1.7070    1.6599   -2.3451 H         1 ACP         0.0875
     46 HN61       -0.1277   -0.2866   -6.4583 H         1 ACP         0.4433
     47 HN62        1.4308   -0.7566   -7.0823 H         1 ACP         0.4433
     48 H2          4.4130    0.2505   -3.7241 H         1 ACP         0.0459
@<TRIPOS>BOND
     1    1    2 2
     2    1    3 1
     3    1    4 1
     4    1    8 1
     5    3   32 1
     6    4   33 1
     7    5    6 2
     8    5    7 1
     9    5    8 1
    10    5   12 1
    11    8   34 1
    12    8   35 1
    13    9   10 2
    14    9   11 1
    15    9   12 1
    16    9   13 1
    17   11   36 1
    18   13   14 1
    19   14   15 1
    20   14   37 1
    21   14   38 1
    22   15   16 1
    23   15   17 1
    24   15   39 1
    25   16   21 1
    26   17   18 1
    27   17   19 1
    28   17   40 1
    29   18   41 1
    30   19   20 1
    31   19   21 1
    32   19   42 1
    33   20   43 1
    34   21   22 1
    35   21   44 1
    36   22   23 ar
    37   22   31 ar
    38   23   24 ar
    39   23   45 1
    40   24   25 ar
    41   25   26 ar
    42   25   31 ar
    43   26   27 1
    44   26   28 ar
    45   27   46 1
    46   27   47 1
    47   28   29 ar
    48   29   30 ar
    49   29   48 1
    50   30   31 ar
@<TRIPOS>SUBSTRUCTURE
     1 ACP         1 GROUP 0 A     ****
@<TRIPOS>MOLECULE
[[5-(6-aminopurin-9-yl)-3,4-dihydroxy-tetrahydrofuran-2-yl]methoxy-hydroxy-phosphoryl]oxy-(phosphonomethyl)phosphinate
   48    50     1     0     0
SMALL
USER_CHARGES

@<TRIPOS>ATOM
      1 PG         -4.7836    2.8447    3.7517 P.3       1 ACP         1.6292
      2 O1G        -4.7739    3.0230    2.2632 O.2       1 ACP        -0.8674
      3 O2G        -6.2462    2.7508    4.4314 O.3       1 ACP        -0.7977
      4 O3G        -4.0252    1.5266    4.2969 O.3       1 ACP        -0.7977
      5 PB         -2.2068    4.6298    4.4273 P.3       1 ACP         1.4910
      6 O1B        -1.3890    3.4079    4.7764 O.co2     1 ACP        -0.8292
      7 O2B        -1.9859    5.9658    5.0979 O.co2     1 ACP        -0.8292
      8 C3B        -3.9861    4.1842    4.6661 C.3       1 ACP        -0.6453
      9 PA         -1.0211    5.0514    1.7610 P.3       1 ACP         1.7996
     10 O1A        -0.2009    6.2833    2.0125 O.2       1 ACP        -0.8588
     11 O2A        -1.7535    5.0194    0.3188 O.3       1 ACP        -0.8037
     12 O3A        -2.2321    4.8245    2.8087 O.3       1 ACP        -0.7988
     13 O5'        -0.2069    3.6554    1.8412 O.3       1 ACP        -0.5960
     14 C5'        -0.8811    2.4285    1.6206 C.3       1 ACP         0.1917
     15 C4'        -0.1994    1.3333    2.4288 C.3       1 ACP         0.0908
     16 O4'        -1.1285    0.2356    2.5840 O.3       1 ACP        -0.4111
     17 C3'         1.0324    0.7610    1.7344 C.3       1 ACP         0.0927
     18 O3'         1.9175    0.2377    2.7247 O.3       1 ACP        -0.6127
     19 C2'         0.4468   -0.3802    0.9263 C.3       1 ACP         0.1095
     20 O2'         1.3993   -1.3703    0.5961 O.3       1 ACP        -0.5953
     21 C1'        -0.6159   -0.9100    1.8769 C.3       1 ACP         0.4273
     22 N9         -1.7127   -1.6108    1.2130 N.pl3     1 ACP        -0.6934
     23 C8         -1.6230   -2.3308    0.0513 C.ar      1 ACP         0.5422
     24 N7         -2.7800   -2.8517   -0.3004 N.2       1 ACP        -0.5596
     25 C5         -3.6574   -2.4511    0.6758 C.ar      1 ACP        -0.2259
     26 C6         -5.0170   -2.6775    0.8654 C.ar      1 ACP         0.7526
     27 N6         -5.7504   -3.4510   -0.0504 N.pl3     1 ACP        -0.9660
     28 N1         -5.6292   -2.1415    1.9486 N.ar      1 ACP        -0.8027
     29 C2         -4.8703   -1.4055    2.7961 C.ar      1 ACP         0.6758
     30 N3         -3.5527   -1.1170    2.7199 N.ar      1 ACP        -0.7221
     31 C4         -3.0124   -1.6774    1.6275 C.ar      1 ACP         0.5858
     32 HOG2       -6.8525    2.0301    4.1572 H         1 ACP         0.4705
     33 HOG3       -3.9995    1.3583    5.2630 H         1 ACP         0.4705
     34 H3B1       -4.5557    5.0974    4.4597 H         1 ACP         0.1189
     35 H3B2       -4.1031    3.9701    5.7346 H         1 ACP         0.1189
     36 HOA2       -2.3932    5.7288    0.0960 H         1 ACP         0.4679
     37 H5'1       -1.9259    2.5372    1.9293 H         1 ACP         0.0587
     38 H5'2       -0.8477    2.1923    0.5521 H         1 ACP         0.0587
     39 H4'         0.0402    1.7079    3.4342 H         1 ACP         0.0938
     40 H3'         1.5907    1.4859    1.1353 H         1 ACP         0.0597
     41 HO3'        2.1521    0.9800    3.3017 H         1 ACP         0.4554
     42 H2'        -0.0017    0.0018    0.0005 H         1 ACP         0.0710
     43 HO2'        1.7495   -1.7243    1.4324 H         1 ACP         0.4360
     44 H1'        -0.1998   -1.6319    2.6178 H         1 ACP         0.1247
     45 H8         -0.6932   -2.4401   -0.4900 H         1 ACP         0.0875
     46 HN61       -5.2973   -3.8032   -0.8723 H         1 ACP         0.4433
     47 HN62       -6.7381   -3.5629    0.0791 H         1 ACP         0.4433
     48 H2         -5.3929   -0.9917    3.6520 H         1 ACP         0.0459
@<TRIPOS>BOND
     1    1    2 2
     2    1    3 1
     3    1    4 1
     4    1    8 1
     5    3   32 1
     6    4   33 1
     7    5    6 2
     8    5    7 1
     9    5    8 1
    10    5   12 1
    11    8   34 1
    12    8   35 1
    13    9   10 2
    14    9   11 1
    15    9   12 1
    16    9   13 1
    17   11   36 1
    18   13   14 1
    19   14   15 1
    20   14   37 1
    21   14   38 1
    22   15   16 1
    23   15   17 1
    24   15   39 1
    25   16   21 1
    26   17   18 1
    27   17   19 1
    28   17   40 1
    29   18   41 1
    30   19   20 1
    31   19   21 1
    32   19   42 1
    33   20   43 1
    34   21   22 1
    35   21   44 1
    36   22   23 ar
    37   22   31 ar
    38   23   24 ar
    39   23   45 1
    40   24   25 ar
    41   25   26 ar
    42   25   31 ar
    43   26   27 1
    44   26   28 ar
    45   27   46 1
    46   27   47 1
    47   28   29 ar
    48   29   30 ar
    49   29   48 1
    50   30   31 ar
@<TRIPOS>SUBSTRUCTURE
     1 ACP         1 GROUP 0 A     ****
@<TRIPOS>MOLECULE
[[5-(6-aminopurin-9-yl)-3,4-dihydroxy-tetrahydrofuran-2-yl]methoxy-hydroxy-phosphoryl]oxy-(phosphonomethyl)phosphinate
   48    50     1     0     0
SMALL
USER_CHARGES

@<TRIPOS>ATOM
      1 PG         -2.9795    6.1986   -2.5326 P.3       1 ACP         1.6292
      2 O1G        -4.3537    6.7800   -2.6779 O.2       1 ACP        -0.8674
      3 O2G        -2.0627    6.2399   -3.8622 O.3       1 ACP        -0.7977
      4 O3G        -2.0495    6.8905   -1.4073 O.3       1 ACP        -0.7977
      5 PB         -3.7140    3.8319   -0.4974 P.3       1 ACP         1.4910
      6 O1B        -3.4983    2.3368   -0.4574 O.co2     1 ACP        -0.8292
      7 O2B        -5.0882    4.4509   -0.3882 O.co2     1 ACP        -0.8292
      8 C3B        -2.9564    4.4526   -2.0665 C.3       1 ACP        -0.6453
      9 PA         -2.5516    4.3890    2.1542 P.3       1 ACP         1.7996
     10 O1A        -3.7879    4.7308    2.9341 O.2       1 ACP        -0.8588
     11 O2A        -1.2616    5.2960    2.5158 O.3       1 ACP        -0.8037
     12 O3A        -2.6991    4.5573    0.5525 O.3       1 ACP        -0.7988
     13 O5'        -2.0397    2.8622    2.3121 O.3       1 ACP        -0.5960
     14 C5'        -0.8811    2.4285    1.6206 C.3       1 ACP         0.1917
     15 C4'        -0.1994    1.3333    2.4288 C.3       1 ACP         0.0908
     16 O4'        -1.1285    0.2356    2.5840 O.3       1 ACP        -0.4111
     17 C3'         1.0324    0.7610    1.7344 C.3       1 ACP         0.0927
     18 O3'         1.9175    0.2377    2.7247 O.3       1 ACP        -0.6127
     19 C2'         0.4468   -0.3802    0.9263 C.3       1 ACP         0.1095
     20 O2'         1.3993   -1.3703    0.5961 O.3       1 ACP        -0.5953
     21 C1'        -0.6159   -0.9100    1.8769 C.3       1 ACP         0.4273
     22 N9         -1.7127   -1.6108    1.2130 N.pl3     1 ACP        -0.6934
     23 C8         -1.6230   -2.3308    0.0513 C.ar      1 ACP         0.5422
     24 N7         -2.7800   -2.8517   -0.3004 N.2       1 ACP        -0.5596
     25 C5         -3.6574   -2.4511    0.6758 C.ar      1 ACP        -0.2259
     26 C6         -5.0170   -2.6775    0.8654 C.ar      1 ACP         0.7526
     27 N6         -5.7504   -3.4510   -0.0504 N.pl3     1 ACP        -0.9660
     28 N1         -5.6292   -2.1415    1.9486 N.ar      1 ACP        -0.8027
     29 C2         -4.8703   -1.4055    2.7961 C.ar      1 ACP         0.6758
     30 N3         -3.5527   -1.1170    2.7199 N.ar      1 ACP        -0.7221
     31 C4         -3.0124   -1.6774    1.6275 C.ar      1 ACP         0.5858
     32 HOG2       -1.8518    7.1079   -4.2674 H         1 ACP         0.4705
     33 HOG3       -1.1398    6.5512   -1.2680 H         1 ACP         0.4705
     34 H3B1       -3.4436    3.8977   -2.8763 H         1 ACP         0.1189
     35 H3B2       -1.9091    4.1304   -2.0444 H         1 ACP         0.1189
     36 HOA2       -1.3128    6.2668    2.3850 H         1 ACP         0.4679
     37 H5'1       -1.1760    2.0499    0.6365 H         1 ACP         0.0587
     38 H5'2       -0.2073    3.2811    1.4873 H         1 ACP         0.0587
     39 H4'         0.0402    1.7079    3.4342 H         1 ACP         0.0938
     40 H3'         1.5907    1.4859    1.1353 H         1 ACP         0.0597
     41 HO3'        2.1521    0.9800    3.3017 H         1 ACP         0.4554
     42 H2'        -0.0017    0.0018    0.0005 H         1 ACP         0.0710
     43 HO2'        1.7495   -1.7243    1.4324 H         1 ACP         0.4360
     44 H1'        -0.1998   -1.6319    2.6178 H         1 ACP         0.1247
     45 H8         -0.6932   -2.4401   -0.4900 H         1 ACP         0.0875
     46 HN61       -6.7181   -3.6415    0.1291 H         1 ACP         0.4433
     47 HN62       -5.2769   -3.8816   -0.8220 H         1 ACP         0.4433
     48 H2         -5.3929   -0.9917    3.6520 H         1 ACP         0.0459
@<TRIPOS>BOND
     1    1    2 2
     2    1    3 1
     3    1    4 1
     4    1    8 1
     5    3   32 1
     6    4   33 1
     7    5    6 2
     8    5    7 1
     9    5    8 1
    10    5   12 1
    11    8   34 1
    12    8   35 1
    13    9   10 2
    14    9   11 1
    15    9   12 1
    16    9   13 1
    17   11   36 1
    18   13   14 1
    19   14   15 1
    20   14   37 1
    21   14   38 1
    22   15   16 1
    23   15   17 1
    24   15   39 1
    25   16   21 1
    26   17   18 1
    27   17   19 1
    28   17   40 1
    29   18   41 1
    30   19   20 1
    31   19   21 1
    32   19   42 1
    33   20   43 1
    34   21   22 1
    35   21   44 1
    36   22   23 ar
    37   22   31 ar
    38   23   24 ar
    39   23   45 1
    40   24   25 ar
    41   25   26 ar
    42   25   31 ar
    43   26   27 1
    44   26   28 ar
    45   27   46 1
    46   27   47 1
    47   28   29 ar
    48   29   30 ar
    49   29   48 1
    50   30   31 ar
@<TRIPOS>SUBSTRUCTURE
     1 ACP         1 GROUP 0 A     ****
@<TRIPOS>MOLECULE
[[5-(6-aminopurin-9-yl)-3,4-dihydroxy-tetrahydrofuran-2-yl]methoxy-hydroxy-phosphoryl]oxy-(phosphonomethyl)phosphinate
   48    50     1     0     0
SMALL
USER_CHARGES

@<TRIPOS>ATOM
      1 PG         -4.6201    6.2184   -1.1220 P.3       1 ACP         1.6292
      2 O1G        -4.5024    7.7019   -1.3032 O.2       1 ACP        -0.8674
      3 O2G        -6.1063    5.6114   -1.3033 O.3       1 ACP        -0.7977
      4 O3G        -3.7192    5.3243   -2.1214 O.3       1 ACP        -0.7977
      5 PB         -2.4245    5.8801    1.1905 P.3       1 ACP         1.4910
      6 O1B        -2.3933    5.2560    2.5664 O.co2     1 ACP        -0.8292
      7 O2B        -2.0583    7.3269    0.9534 O.co2     1 ACP        -0.8292
      8 C3B        -4.1273    5.6277    0.5134 C.3       1 ACP        -0.6453
      9 PA         -0.0715    4.4469    0.1409 P.3       1 ACP         1.7996
     10 O1A         0.9309    5.5629    0.0817 O.2       1 ACP        -0.8588
     11 O2A         0.0046    3.4141   -1.1020 O.3       1 ACP        -0.8037
     12 O3A        -1.6152    4.9291    0.1422 O.3       1 ACP        -0.7988
     13 O5'         0.0170    3.5129    1.4593 O.3       1 ACP        -0.5960
     14 C5'        -0.8811    2.4285    1.6206 C.3       1 ACP         0.1917
     15 C4'        -0.1994    1.3333    2.4288 C.3       1 ACP         0.0908
     16 O4'        -1.1285    0.2356    2.5840 O.3       1 ACP        -0.4111
     17 C3'         1.0324    0.7610    1.7344 C.3       1 ACP         0.0927
     18 O3'         1.9175    0.2377    2.7247 O.3       1 ACP        -0.6127
     19 C2'         0.4468   -0.3802    0.9263 C.3       1 ACP         0.1095
     20 O2'         1.3993   -1.3703    0.5961 O.3       1 ACP        -0.5953
     21 C1'        -0.6159   -0.9100    1.8769 C.3       1 ACP         0.4273
     22 N9         -1.7127   -1.6108    1.2130 N.pl3     1 ACP        -0.6934
     23 C8         -1.6230   -2.3308    0.0513 C.ar      1 ACP         0.5422
     24 N7         -2.7800   -2.8517   -0.3004 N.2       1 ACP        -0.5596
     25 C5         -3.6574   -2.4511    0.6758 C.ar      1 ACP        -0.2259
     26 C6         -5.0170   -2.6775    0.8654 C.ar      1 ACP         0.7526
     27 N6         -5.7504   -3.4510   -0.0504 N.pl3     1 ACP        -0.9660
     28 N1         -5.6292   -2.1415    1.9486 N.ar      1 ACP        -0.8027
     29 C2         -4.8703   -1.4055    2.7961 C.ar      1 ACP         0.6758
     30 N3         -3.5527   -1.1170    2.7199 N.ar      1 ACP        -0.7221
     31 C4         -3.0124   -1.6774    1.6275 C.ar      1 ACP         0.5858
     32 HOG2       -6.5657    5.7275   -2.1622 H         1 ACP         0.4705
     33 HOG3       -3.7561    4.3468   -2.0485 H         1 ACP         0.4705
     34 H3B1       -4.8105    6.0837    1.2388 H         1 ACP         0.1189
     35 H3B2       -4.3066    4.5469    0.5422 H         1 ACP         0.1189
     36 HOA2        0.8376    2.9203   -1.2580 H         1 ACP         0.4679
     37 H5'1       -1.7775    2.7842    2.1389 H         1 ACP         0.0587
     38 H5'2       -1.1659    2.0534    0.6322 H         1 ACP         0.0587
     39 H4'         0.0402    1.7079    3.4342 H         1 ACP         0.0938
     40 H3'         1.5907    1.4859    1.1353 H         1 ACP         0.0597
     41 HO3'        2.6839   -0.1150    2.2479 H         1 ACP         0.4554
     42 H2'        -0.0017    0.0018    0.0005 H         1 ACP         0.0710
     43 HO2'        2.0953   -0.9375    0.0709 H         1 ACP         0.4360
     44 H1'        -0.1998   -1.6319    2.6178 H         1 ACP         0.1247
     45 H8         -0.6932   -2.4401   -0.4900 H         1 ACP         0.0875
     46 HN61       -5.2972   -3.8032   -0.8723 H         1 ACP         0.4433
     47 HN62       -6.7381   -3.5629    0.0791 H         1 ACP         0.4433
     48 H2         -5.3929   -0.9917    3.6520 H         1 ACP         0.0459
@<TRIPOS>BOND
     1    1    2 2
     2    1    3 1
     3    1    4 1
     4    1    8 1
     5    3   32 1
     6    4   33 1
     7    5    6 2
     8    5    7 1
     9    5    8 1
    10    5   12 1
    11    8   34 1
    12    8   35 1
    13    9   10 2
    14    9   11 1
    15    9   12 1
    16    9   13 1
    17   11   36 1
    18   13   14 1
    19   14   15 1
    20   14   37 1
    21   14   38 1
    22   15   16 1
    23   15   17 1
    24   15   39 1
    25   16   21 1
    26   17   18 1
    27   17   19 1
    28   17   40 1
    29   18   41 1
    30   19   20 1
    31   19   21 1
    32   19   42 1
    33   20   43 1
    34   21   22 1
    35   21   44 1
    36   22   23 ar
    37   22   31 ar
    38   23   24 ar
    39   23   45 1
    40   24   25 ar
    41   25   26 ar
    42   25   31 ar
    43   26   27 1
    44   26   28 ar
    45   27   46 1
    46   27   47 1
    47   28   29 ar
    48   29   30 ar
    49   29   48 1
    50   30   31 ar
@<TRIPOS>SUBSTRUCTURE
     1 ACP         1 GROUP 0 A     ****
@<TRIPOS>MOLECULE
[[5-(6-aminopurin-9-yl)-3,4-dihydroxy-tetrahydrofuran-2-yl]methoxy-hydroxy-phosphoryl]oxy-(phosphonomethyl)phosphinate
   48    50     1     0     0
SMALL
USER_CHARGES

@<TRIPOS>ATOM
      1 PG         -4.8210    3.1450    4.4722 P.3       1 ACP         1.6292
      2 O1G        -6.0171    3.0357    3.5751 O.2       1 ACP        -0.8674
      3 O2G        -5.0624    2.7098    6.0093 O.3       1 ACP        -0.7977
      4 O3G        -3.5377    2.2710    4.0262 O.3       1 ACP        -0.7977
      5 PB         -3.5193    5.7632    3.1557 P.3       1 ACP         1.4910
      6 O1B        -3.0438    7.1045    3.6641 O.co2     1 ACP        -0.8292
      7 O2B        -4.5524    5.6369    2.0602 O.co2     1 ACP        -0.8292
      8 C3B        -4.1490    4.8167    4.6148 C.3       1 ACP        -0.6453
      9 PA         -1.0211    5.0514    1.7610 P.3       1 ACP         1.7996
     10 O1A        -0.2009    6.2833    2.0125 O.2       1 ACP        -0.8588
     11 O2A        -1.7535    5.0194    0.3188 O.3       1 ACP        -0.8037
     12 O3A        -2.2321    4.8245    2.8087 O.3       1 ACP        -0.7988
     13 O5'        -0.2069    3.6554    1.8412 O.3       1 ACP        -0.5960
     14 C5'        -0.8811    2.4285    1.6206 C.3       1 ACP         0.1917
     15 C4'        -0.1994    1.3333    2.4288 C.3       1 ACP         0.0908
     16 O4'        -1.1285    0.2356    2.5840 O.3       1 ACP        -0.4111
     17 C3'         1.0324    0.7610    1.7344 C.3       1 ACP         0.0927
     18 O3'         1.9175    0.2377    2.7247 O.3       1 ACP        -0.6127
     19 C2'         0.4468   -0.3802    0.9263 C.3       1 ACP         0.1095
     20 O2'         1.3993   -1.3703    0.5961 O.3       1 ACP        -0.5953
     21 C1'        -0.6159   -0.9100    1.8769 C.3       1 ACP         0.4273
     22 N9         -1.7127   -1.6108    1.2130 N.pl3     1 ACP        -0.6934
     23 C8         -1.6230   -2.3308    0.0513 C.ar      1 ACP         0.5422
     24 N7         -2.7800   -2.8517   -0.3004 N.2       1 ACP        -0.5596
     25 C5         -3.6574   -2.4511    0.6758 C.ar      1 ACP        -0.2259
     26 C6         -5.0170   -2.6775    0.8654 C.ar      1 ACP         0.7526
     27 N6         -5.7504   -3.4510   -0.0504 N.pl3     1 ACP        -0.9660
     28 N1         -5.6292   -2.1415    1.9486 N.ar      1 ACP        -0.8027
     29 C2         -4.8703   -1.4055    2.7961 C.ar      1 ACP         0.6758
     30 N3         -3.5527   -1.1170    2.7199 N.ar      1 ACP        -0.7221
     31 C4         -3.0124   -1.6774    1.6275 C.ar      1 ACP         0.5858
     32 HOG2       -5.3533    1.7935    6.2038 H         1 ACP         0.4705
     33 HOG3       -2.7260    2.3037    4.5760 H         1 ACP         0.4705
     34 H3B1       -4.9309    5.4398    5.0635 H         1 ACP         0.1189
     35 H3B2       -3.3205    4.7797    5.3313 H         1 ACP         0.1189
     36 HOA2       -2.3932    5.7288    0.0960 H         1 ACP         0.4679
     37 H5'1       -1.9259    2.5372    1.9293 H         1 ACP         0.0587
     38 H5'2       -0.8477    2.1923    0.5521 H         1 ACP         0.0587
     39 H4'         0.0402    1.7079    3.4342 H         1 ACP         0.0938
     40 H3'         1.5907    1.4859    1.1353 H         1 ACP         0.0597
     41 HO3'        2.1521    0.9800    3.3017 H         1 ACP         0.4554
     42 H2'        -0.0017    0.0018    0.0005 H         1 ACP         0.0710
     43 HO2'        2.0953   -0.9375    0.0709 H         1 ACP         0.4360
     44 H1'        -0.1998   -1.6319    2.6178 H         1 ACP         0.1247
     45 H8         -0.6932   -2.4401   -0.4900 H         1 ACP         0.0875
     46 HN61       -5.2972   -3.8032   -0.8723 H         1 ACP         0.4433
     47 HN62       -6.7381   -3.5629    0.0791 H         1 ACP         0.4433
     48 H2         -5.3929   -0.9917    3.6520 H         1 ACP         0.0459
@<TRIPOS>BOND
     1    1    2 2
     2    1    3 1
     3    1    4 1
     4    1    8 1
     5    3   32 1
     6    4   33 1
     7    5    6 2
     8    5    7 1
     9    5    8 1
    10    5   12 1
    11    8   34 1
    12    8   35 1
    13    9   10 2
    14    9   11 1
    15    9   12 1
    16    9   13 1
    17   11   36 1
    18   13   14 1
    19   14   15 1
    20   14   37 1
    21   14   38 1
    22   15   16 1
    23   15   17 1
    24   15   39 1
    25   16   21 1
    26   17   18 1
    27   17   19 1
    28   17   40 1
    29   18   41 1
    30   19   20 1
    31   19   21 1
    32   19   42 1
    33   20   43 1
    34   21   22 1
    35   21   44 1
    36   22   23 ar
    37   22   31 ar
    38   23   24 ar
    39   23   45 1
    40   24   25 ar
    41   25   26 ar
    42   25   31 ar
    43   26   27 1
    44   26   28 ar
    45   27   46 1
    46   27   47 1
    47   28   29 ar
    48   29   30 ar
    49   29   48 1
    50   30   31 ar
@<TRIPOS>SUBSTRUCTURE
     1 ACP         1 GROUP 0 A     ****
@<TRIPOS>MOLECULE
[[5-(6-aminopurin-9-yl)-3,4-dihydroxy-tetrahydrofuran-2-yl]methoxy-hydroxy-phosphoryl]oxy-(phosphonomethyl)phosphinate
   48    50     1     0     0
SMALL
USER_CHARGES

@<TRIPOS>ATOM
      1 PG         -2.6219    4.5955   -6.3584 P.3       1 ACP         1.6292
      2 O1G        -1.7508    5.5359   -7.1357 O.2       1 ACP        -0.8674
      3 O2G        -2.3762    4.5789   -4.7617 O.3       1 ACP        -0.7977
      4 O3G        -4.2114    4.8487   -6.4964 O.3       1 ACP        -0.7977
      5 PB         -0.8323    1.9559   -6.6944 P.3       1 ACP         1.4910
      6 O1B         0.1582    2.6786   -7.5778 O.co2     1 ACP        -0.8292
      7 O2B        -1.1306    0.4833   -6.8552 O.co2     1 ACP        -0.8292
      8 C3B        -2.4416    2.8585   -6.8242 C.3       1 ACP        -0.6453
      9 PA          0.8238    2.0081   -4.2558 P.3       1 ACP         1.7996
     10 O1A         2.0611    2.6823   -4.7737 O.2       1 ACP        -0.8588
     11 O2A         0.9162    0.3939   -4.2000 O.3       1 ACP        -0.8037
     12 O3A        -0.5083    2.2838   -5.1306 O.3       1 ACP        -0.7988
     13 O5'         0.3749    2.4474   -2.7646 O.3       1 ACP        -0.5960
     14 C5'        -0.7794    1.8744   -2.1748 C.3       1 ACP         0.1917
     15 C4'        -0.9699    2.4597   -0.7819 C.3       1 ACP         0.0908
     16 O4'        -2.1475    1.8640   -0.2014 O.3       1 ACP        -0.4111
     17 C3'         0.1697    2.1347    0.1695 C.3       1 ACP         0.0927
     18 O3'         0.1809    3.0982    1.2223 O.3       1 ACP        -0.6127
     19 C2'        -0.2543    0.7880    0.7187 C.3       1 ACP         0.1095
     20 O2'         0.3606    0.4944    1.9582 O.3       1 ACP        -0.5953
     21 C1'        -1.7682    0.9516    0.8548 C.3       1 ACP         0.4273
     22 N9         -2.5926   -0.2553    0.7436 N.pl3     1 ACP        -0.6934
     23 C8         -2.1324   -1.5302    0.5457 C.ar      1 ACP         0.5422
     24 N7         -3.1118   -2.4085    0.4915 N.2       1 ACP        -0.5596
     25 C5         -4.2561   -1.6704    0.6612 C.ar      1 ACP        -0.2259
     26 C6         -5.6018   -2.0215    0.6998 C.ar      1 ACP         0.7526
     27 N6         -5.9988   -3.3610    0.5479 N.pl3     1 ACP        -0.9660
     28 N1         -6.5303   -1.0528    0.8871 N.ar      1 ACP        -0.8027
     29 C2         -6.0872    0.2199    1.0276 C.ar      1 ACP         0.6758
     30 N3         -4.8179    0.6820    1.0081 N.ar      1 ACP        -0.7221
     31 C4         -3.9544   -0.3272    0.8198 C.ar      1 ACP         0.5858
     32 HOG2       -1.4906    4.3324   -4.4195 H         1 ACP         0.4705
     33 HOG3       -4.5809    5.7137   -6.2179 H         1 ACP         0.4705
     34 H3B1       -3.1563    2.2883   -6.2200 H         1 ACP         0.1189
     35 H3B2       -2.7587    2.7619   -7.8688 H         1 ACP         0.1189
     36 HOA2        1.0746   -0.1010   -5.0320 H         1 ACP         0.4679
     37 H5'1       -1.6471    2.0964   -2.8045 H         1 ACP         0.0587
     38 H5'2       -0.6478    0.7889   -2.1188 H         1 ACP         0.0587
     39 H4'        -1.1469    3.5409   -0.8523 H         1 ACP         0.0938
     40 H3'         1.1601    2.1310   -0.2934 H         1 ACP         0.0597
     41 HO3'        0.3098    3.9616    0.8017 H         1 ACP         0.4554
     42 H2'        -0.0024   -0.0091    0.0062 H         1 ACP         0.0710
     43 HO2'        1.3225    0.4909    1.8095 H         1 ACP         0.4360
     44 H1'        -2.0584    1.4255    1.8301 H         1 ACP         0.1247
     45 H8         -1.0791   -1.7555    0.4498 H         1 ACP         0.0875
     46 HN61       -5.3067   -4.0623    0.3633 H         1 ACP         0.4433
     47 HN62       -6.9754   -3.5867    0.5317 H         1 ACP         0.4433
     48 H2         -6.8575    0.9694    1.1755 H         1 ACP         0.0459
@<TRIPOS>BOND
     1    1    2 2
     2    1    3 1
     3    1    4 1
     4    1    8 1
     5    3   32 1
     6    4   33 1
     7    5    6 2
     8    5    7 1
     9    5    8 1
    10    5   12 1
    11    8   34 1
    12    8   35 1
    13    9   10 2
    14    9   11 1
    15    9   12 1
    16    9   13 1
    17   11   36 1
    18   13   14 1
    19   14   15 1
    20   14   37 1
    21   14   38 1
    22   15   16 1
    23   15   17 1
    24   15   39 1
    25   16   21 1
    26   17   18 1
    27   17   19 1
    28   17   40 1
    29   18   41 1
    30   19   20 1
    31   19   21 1
    32   19   42 1
    33   20   43 1
    34   21   22 1
    35   21   44 1
    36   22   23 ar
    37   22   31 ar
    38   23   24 ar
    39   23   45 1
    40   24   25 ar
    41   25   26 ar
    42   25   31 ar
    43   26   27 1
    44   26   28 ar
    45   27   46 1
    46   27   47 1
    47   28   29 ar
    48   29   30 ar
    49   29   48 1
    50   30   31 ar
@<TRIPOS>SUBSTRUCTURE
     1 ACP         1 GROUP 0 A     ****
@<TRIPOS>MOLECULE
[[5-(6-aminopurin-9-yl)-3,4-dihydroxy-tetrahydrofuran-2-yl]methoxy-hydroxy-phosphoryl]oxy-(phosphonomethyl)phosphinate
   48    50     1     0     0
SMALL
USER_CHARGES

@<TRIPOS>ATOM
      1 PG         -4.8812    6.8789    1.8639 P.3       1 ACP         1.6292
      2 O1G        -4.6367    6.7140    0.3941 O.2       1 ACP        -0.8674
      3 O2G        -4.5698    8.3477    2.4603 O.3       1 ACP        -0.7977
      4 O3G        -6.3920    6.5819    2.3529 O.3       1 ACP        -0.7977
      5 PB         -2.0405    5.8173    2.9061 P.3       1 ACP         1.4910
      6 O1B        -1.5748    4.7761    3.8974 O.co2     1 ACP        -0.8292
      7 O2B        -1.6156    7.2645    2.9983 O.co2     1 ACP        -0.8292
      8 C3B        -3.8900    5.7877    2.9095 C.3       1 ACP        -0.6453
      9 PA         -0.4421    4.8274    0.6350 P.3       1 ACP         1.7996
     10 O1A         0.5938    5.9089    0.5310 O.2       1 ACP        -0.8588
     11 O2A        -0.9616    4.2610   -0.7886 O.3       1 ACP        -0.8037
     12 O3A        -1.8029    5.2700    1.3888 O.3       1 ACP        -0.7988
     13 O5'         0.0170    3.5129    1.4593 O.3       1 ACP        -0.5960
     14 C5'        -0.8811    2.4285    1.6206 C.3       1 ACP         0.1917
     15 C4'        -0.1994    1.3333    2.4288 C.3       1 ACP         0.0908
     16 O4'        -1.1285    0.2356    2.5840 O.3       1 ACP        -0.4111
     17 C3'         1.0324    0.7610    1.7344 C.3       1 ACP         0.0927
     18 O3'         1.9175    0.2377    2.7247 O.3       1 ACP        -0.6127
     19 C2'         0.4468   -0.3802    0.9263 C.3       1 ACP         0.1095
     20 O2'         1.3993   -1.3703    0.5961 O.3       1 ACP        -0.5953
     21 C1'        -0.6159   -0.9100    1.8769 C.3       1 ACP         0.4273
     22 N9         -1.7127   -1.6108    1.2130 N.pl3     1 ACP        -0.6934
     23 C8         -1.6230   -2.3308    0.0513 C.ar      1 ACP         0.5422
     24 N7         -2.7800   -2.8517   -0.3004 N.2       1 ACP        -0.5596
     25 C5         -3.6574   -2.4511    0.6758 C.ar      1 ACP        -0.2259
     26 C6         -5.0170   -2.6775    0.8654 C.ar      1 ACP         0.7526
     27 N6         -5.7504   -3.4510   -0.0504 N.pl3     1 ACP        -0.9660
     28 N1         -5.6292   -2.1415    1.9486 N.ar      1 ACP        -0.8027
     29 C2         -4.8703   -1.4055    2.7961 C.ar      1 ACP         0.6758
     30 N3         -3.5527   -1.1170    2.7199 N.ar      1 ACP        -0.7221
     31 C4         -3.0124   -1.6774    1.6275 C.ar      1 ACP         0.5858
     32 HOG2       -3.6608    8.7085    2.3848 H         1 ACP         0.4705
     33 HOG3       -7.1253    7.1186    1.9835 H         1 ACP         0.4705
     34 H3B1       -4.1923    5.9746    3.9461 H         1 ACP         0.1189
     35 H3B2       -4.1759    4.7560    2.6750 H         1 ACP         0.1189
     36 HOA2       -0.3137    3.8525   -1.4014 H         1 ACP         0.4679
     37 H5'1       -1.7775    2.7842    2.1389 H         1 ACP         0.0587
     38 H5'2       -1.1659    2.0534    0.6322 H         1 ACP         0.0587
     39 H4'         0.0402    1.7079    3.4342 H         1 ACP         0.0938
     40 H3'         1.5907    1.4859    1.1353 H         1 ACP         0.0597
     41 HO3'        2.6839   -0.1150    2.2479 H         1 ACP         0.4554
     42 H2'        -0.0017    0.0018    0.0005 H         1 ACP         0.0710
     43 HO2'        2.0953   -0.9375    0.0709 H         1 ACP         0.4360
     44 H1'        -0.1998   -1.6319    2.6178 H         1 ACP         0.1247
     45 H8         -0.6932   -2.4401   -0.4900 H         1 ACP         0.0875
     46 HN61       -5.2972   -3.8032   -0.8723 H         1 ACP         0.4433
     47 HN62       -6.7381   -3.5629    0.0791 H         1 ACP         0.4433
     48 H2         -5.3929   -0.9917    3.6520 H         1 ACP         0.0459
@<TRIPOS>BOND
     1    1    2 2
     2    1    3 1
     3    1    4 1
     4    1    8 1
     5    3   32 1
     6    4   33 1
     7    5    6 2
     8    5    7 1
     9    5    8 1
    10    5   12 1
    11    8   34 1
    12    8   35 1
    13    9   10 2
    14    9   11 1
    15    9   12 1
    16    9   13 1
    17   11   36 1
    18   13   14 1
    19   14   15 1
    20   14   37 1
    21   14   38 1
    22   15   16 1
    23   15   17 1
    24   15   39 1
    25   16   21 1
    26   17   18 1
    27   17   19 1
    28   17   40 1
    29   18   41 1
    30   19   20 1
    31   19   21 1
    32   19   42 1
    33   20   43 1
    34   21   22 1
    35   21   44 1
    36   22   23 ar
    37   22   31 ar
    38   23   24 ar
    39   23   45 1
    40   24   25 ar
    41   25   26 ar
    42   25   31 ar
    43   26   27 1
    44   26   28 ar
    45   27   46 1
    46   27   47 1
    47   28   29 ar
    48   29   30 ar
    49   29   48 1
    50   30   31 ar
@<TRIPOS>SUBSTRUCTURE
     1 ACP         1 GROUP 0 A     ****
@<TRIPOS>MOLECULE
[[5-(6-aminopurin-9-yl)-3,4-dihydroxy-tetrahydrofuran-2-yl]methoxy-hydroxy-phosphoryl]oxy-(phosphonomethyl)phosphinate
   48    50     1     0     0
SMALL
USER_CHARGES

@<TRIPOS>ATOM
      1 PG         -2.9119    7.5099   -0.8128 P.3       1 ACP         1.6292
      2 O1G        -3.1476    7.8424   -2.2554 O.2       1 ACP        -0.8674
      3 O2G        -2.7792    8.7772    0.1804 O.3       1 ACP        -0.7977
      4 O3G        -4.0495    6.5982   -0.1166 O.3       1 ACP        -0.7977
      5 PB         -1.0759    4.9176   -1.2512 P.3       1 ACP         1.4910
      6 O1B         0.2805    4.4610   -0.7660 O.co2     1 ACP        -0.8292
      7 O2B        -1.4150    5.0160   -2.7204 O.co2     1 ACP        -0.8292
      8 C3B        -1.3940    6.5790   -0.5028 C.3       1 ACP        -0.6453
      9 PA         -2.5393    2.4968   -0.4201 P.3       1 ACP         1.7996
     10 O1A        -2.8231    1.8710   -1.7548 O.2       1 ACP        -0.8588
     11 O2A        -3.7479    2.3698    0.6478 O.3       1 ACP        -0.8037
     12 O3A        -2.2418    4.0857   -0.4722 O.3       1 ACP        -0.7988
     13 O5'        -1.2435    1.9111    0.3519 O.3       1 ACP        -0.5960
     14 C5'        -0.8811    2.4285    1.6206 C.3       1 ACP         0.1917
     15 C4'        -0.1994    1.3333    2.4288 C.3       1 ACP         0.0908
     16 O4'        -1.1285    0.2356    2.5840 O.3       1 ACP        -0.4111
     17 C3'         1.0324    0.7610    1.7344 C.3       1 ACP         0.0927
     18 O3'         1.9175    0.2377    2.7247 O.3       1 ACP        -0.6127
     19 C2'         0.4468   -0.3802    0.9263 C.3       1 ACP         0.1095
     20 O2'         1.3993   -1.3703    0.5961 O.3       1 ACP        -0.5953
     21 C1'        -0.6159   -0.9100    1.8769 C.3       1 ACP         0.4273
     22 N9         -1.7127   -1.6108    1.2130 N.pl3     1 ACP        -0.6934
     23 C8         -3.0342   -1.2519    1.2439 C.ar      1 ACP         0.5422
     24 N7         -3.7886   -2.0756    0.5467 N.2       1 ACP        -0.5596
     25 C5         -2.9179   -3.0087    0.0426 C.ar      1 ACP        -0.2259
     26 C6         -3.1045   -4.1262   -0.7649 C.ar      1 ACP         0.7526
     27 N6         -4.3870   -4.4763   -1.2206 N.pl3     1 ACP        -0.9660
     28 N1         -2.0306   -4.8769   -1.1094 N.ar      1 ACP        -0.8027
     29 C2         -0.8199   -4.4895   -0.6402 C.ar      1 ACP         0.6758
     30 N3         -0.5140   -3.4335    0.1448 N.ar      1 ACP        -0.7221
     31 C4         -1.6202   -2.7371    0.4460 C.ar      1 ACP         0.5858
     32 HOG2       -3.5318    9.4016    0.2576 H         1 ACP         0.4705
     33 HOG3       -3.9477    6.3493    0.8267 H         1 ACP         0.4705
     34 H3B1       -0.5580    7.2151   -0.8148 H         1 ACP         0.1189
     35 H3B2       -1.3047    6.4441    0.5812 H         1 ACP         0.1189
     36 HOA2       -4.0551    1.4766    0.9123 H         1 ACP         0.4679
     37 H5'1       -0.2031    3.2762    1.4777 H         1 ACP         0.0587
     38 H5'2       -1.7839    2.7764    2.1331 H         1 ACP         0.0587
     39 H4'         0.0402    1.7079    3.4342 H         1 ACP         0.0938
     40 H3'         1.5907    1.4859    1.1353 H         1 ACP         0.0597
     41 HO3'        2.6839   -0.1150    2.2479 H         1 ACP         0.4554
     42 H2'        -0.0017    0.0018    0.0005 H         1 ACP         0.0710
     43 HO2'        2.0953   -0.9375    0.0709 H         1 ACP         0.4360
     44 H1'        -0.1998   -1.6319    2.6178 H         1 ACP         0.1247
     45 H8         -3.3847   -0.3852    1.7876 H         1 ACP         0.0875
     46 HN61       -5.1798   -3.9409   -0.9211 H         1 ACP         0.4433
     47 HN62       -4.5065   -5.3114   -1.7621 H         1 ACP         0.4433
     48 H2          0.0171   -5.1133   -0.9354 H         1 ACP         0.0459
@<TRIPOS>BOND
     1    1    2 2
     2    1    3 1
     3    1    4 1
     4    1    8 1
     5    3   32 1
     6    4   33 1
     7    5    6 2
     8    5    7 1
     9    5    8 1
    10    5   12 1
    11    8   34 1
    12    8   35 1
    13    9   10 2
    14    9   11 1
    15    9   12 1
    16    9   13 1
    17   11   36 1
    18   13   14 1
    19   14   15 1
    20   14   37 1
    21   14   38 1
    22   15   16 1
    23   15   17 1
    24   15   39 1
    25   16   21 1
    26   17   18 1
    27   17   19 1
    28   17   40 1
    29   18   41 1
    30   19   20 1
    31   19   21 1
    32   19   42 1
    33   20   43 1
    34   21   22 1
    35   21   44 1
    36   22   23 ar
    37   22   31 ar
    38   23   24 ar
    39   23   45 1
    40   24   25 ar
    41   25   26 ar
    42   25   31 ar
    43   26   27 1
    44   26   28 ar
    45   27   46 1
    46   27   47 1
    47   28   29 ar
    48   29   30 ar
    49   29   48 1
    50   30   31 ar
@<TRIPOS>SUBSTRUCTURE
     1 ACP         1 GROUP 0 A     ****
@<TRIPOS>MOLECULE
[[5-(6-aminopurin-9-yl)-3,4-dihydroxy-tetrahydrofuran-2-yl]methoxy-hydroxy-phosphoryl]oxy-(phosphonomethyl)phosphinate
   48    50     1     0     0
SMALL
USER_CHARGES

@<TRIPOS>ATOM
      1 PG         -1.5278    5.3687    6.0068 P.3       1 ACP         1.6292
      2 O1G        -0.6145    4.2696    5.5538 O.2       1 ACP        -0.8674
      3 O2G        -2.3497    5.0742    7.3661 O.3       1 ACP        -0.7977
      4 O3G        -0.8139    6.7892    6.2938 O.3       1 ACP        -0.7977
      5 PB         -2.4515    6.3963    3.1130 P.3       1 ACP         1.4910
      6 O1B        -1.6491    7.6691    3.2529 O.co2     1 ACP        -0.8292
      7 O2B        -3.7406    6.3387    2.3266 O.co2     1 ACP        -0.8292
      8 C3B        -2.8245    5.7937    4.8216 C.3       1 ACP        -0.6453
      9 PA         -0.5525    5.0215    1.3253 P.3       1 ACP         1.7996
     10 O1A         0.4935    6.0854    1.1588 O.2       1 ACP        -0.8588
     11 O2A        -1.6302    4.9500    0.1208 O.3       1 ACP        -0.8037
     12 O3A        -1.4691    5.1810    2.6482 O.3       1 ACP        -0.7988
     13 O5'         0.0170    3.5129    1.4593 O.3       1 ACP        -0.5960
     14 C5'        -0.8811    2.4285    1.6206 C.3       1 ACP         0.1917
     15 C4'        -0.1994    1.3333    2.4288 C.3       1 ACP         0.0908
     16 O4'        -1.1285    0.2356    2.5840 O.3       1 ACP        -0.4111
     17 C3'         1.0324    0.7610    1.7344 C.3       1 ACP         0.0927
     18 O3'         1.9175    0.2377    2.7247 O.3       1 ACP        -0.6127
     19 C2'         0.4468   -0.3802    0.9263 C.3       1 ACP         0.1095
     20 O2'         1.3993   -1.3703    0.5961 O.3       1 ACP        -0.5953
     21 C1'        -0.6159   -0.9100    1.8769 C.3       1 ACP         0.4273
     22 N9         -1.7127   -1.6108    1.2130 N.pl3     1 ACP        -0.6934
     23 C8         -1.6230   -2.3308    0.0513 C.ar      1 ACP         0.5422
     24 N7         -2.7800   -2.8517   -0.3004 N.2       1 ACP        -0.5596
     25 C5         -3.6574   -2.4511    0.6758 C.ar      1 ACP        -0.2259
     26 C6         -5.0170   -2.6775    0.8654 C.ar      1 ACP         0.7526
     27 N6         -5.7504   -3.4510   -0.0504 N.pl3     1 ACP        -0.9660
     28 N1         -5.6292   -2.1415    1.9486 N.ar      1 ACP        -0.8027
     29 C2         -4.8703   -1.4055    2.7961 C.ar      1 ACP         0.6758
     30 N3         -3.5527   -1.1170    2.7199 N.ar      1 ACP        -0.7221
     31 C4         -3.0124   -1.6774    1.6275 C.ar      1 ACP         0.5858
     32 HOG2       -2.9625    5.7592    7.7090 H         1 ACP         0.4705
     33 HOG3       -0.1129    6.8392    6.9782 H         1 ACP         0.4705
     34 H3B1       -3.4501    4.9027    4.6969 H         1 ACP         0.1189
     35 H3B2       -3.4541    6.5633    5.2826 H         1 ACP         0.1189
     36 HOA2       -2.1821    5.7384   -0.0690 H         1 ACP         0.4679
     37 H5'1       -1.7775    2.7842    2.1389 H         1 ACP         0.0587
     38 H5'2       -1.1659    2.0534    0.6322 H         1 ACP         0.0587
     39 H4'         0.0402    1.7079    3.4342 H         1 ACP         0.0938
     40 H3'         1.5907    1.4859    1.1353 H         1 ACP         0.0597
     41 HO3'        2.1521    0.9800    3.3017 H         1 ACP         0.4554
     42 H2'        -0.0017    0.0018    0.0005 H         1 ACP         0.0710
     43 HO2'        2.0953   -0.9375    0.0709 H         1 ACP         0.4360
     44 H1'        -0.1998   -1.6319    2.6178 H         1 ACP         0.1247
     45 H8         -0.6932   -2.4401   -0.4900 H         1 ACP         0.0875
     46 HN61       -5.2972   -3.8032   -0.8723 H         1 ACP         0.4433
     47 HN62       -6.7381   -3.5629    0.0791 H         1 ACP         0.4433
     48 H2         -5.3929   -0.9917    3.6520 H         1 ACP         0.0459
@<TRIPOS>BOND
     1    1    2 2
     2    1    3 1
     3    1    4 1
     4    1    8 1
     5    3   32 1
     6    4   33 1
     7    5    6 2
     8    5    7 1
     9    5    8 1
    10    5   12 1
    11    8   34 1
    12    8   35 1
    13    9   10 2
    14    9   11 1
    15    9   12 1
    16    9   13 1
    17   11   36 1
    18   13   14 1
    19   14   15 1
    20   14   37 1
    21   14   38 1
    22   15   16 1
    23   15   17 1
    24   15   39 1
    25   16   21 1
    26   17   18 1
    27   17   19 1
    28   17   40 1
    29   18   41 1
    30   19   20 1
    31   19   21 1
    32   19   42 1
    33   20   43 1
    34   21   22 1
    35   21   44 1
    36   22   23 ar
    37   22   31 ar
    38   23   24 ar
    39   23   45 1
    40   24   25 ar
    41   25   26 ar
    42   25   31 ar
    43   26   27 1
    44   26   28 ar
    45   27   46 1
    46   27   47 1
    47   28   29 ar
    48   29   30 ar
    49   29   48 1
    50   30   31 ar
@<TRIPOS>SUBSTRUCTURE
     1 ACP         1 GROUP 0 A     ****
@<TRIPOS>MOLECULE
[[5-(6-aminopurin-9-yl)-3,4-dihydroxy-tetrahydrofuran-2-yl]methoxy-hydroxy-phosphoryl]oxy-(phosphonomethyl)phosphinate
   48    50     1     0     0
SMALL
USER_CHARGES

@<TRIPOS>ATOM
      1 PG          9.2459   -0.4198    2.1059 P.3       1 ACP         1.6292
      2 O1G         9.9559   -1.6458    1.6159 O.2       1 ACP        -0.8674
      3 O2G         9.6737    0.0900    3.5780 O.3       1 ACP        -0.7977
      4 O3G         9.4161    0.8952    1.1832 O.3       1 ACP        -0.7977
      5 PB          6.3864   -1.0048    0.7776 P.3       1 ACP         1.4910
      6 O1B         4.9601   -1.0730    1.2722 O.co2     1 ACP        -0.8292
      7 O2B         7.0421   -2.1542    0.0480 O.co2     1 ACP        -0.8292
      8 C3B         7.4522   -0.6009    2.2345 C.3       1 ACP        -0.6453
      9 PA          5.8746    0.9206   -1.3958 P.3       1 ACP         1.7996
     10 O1A         6.0243    0.0318   -2.5963 O.2       1 ACP        -0.8588
     11 O2A         6.4832    2.4075   -1.5854 O.3       1 ACP        -0.8037
     12 O3A         6.6072    0.3762   -0.0606 O.3       1 ACP        -0.7988
     13 O5'         4.3521    1.1579   -0.9020 O.3       1 ACP        -0.5960
     14 C5'         4.0922    1.9801    0.2227 C.3       1 ACP         0.1917
     15 C4'         2.5944    2.0310    0.4653 C.3       1 ACP         0.0908
     16 O4'         1.9327    2.5740   -0.6889 O.3       1 ACP        -0.4111
     17 C3'         1.9685    0.6634    0.6767 C.3       1 ACP         0.0927
     18 O3'         2.1425    0.1975    1.9977 O.3       1 ACP        -0.6127
     19 C2'         0.5176    0.9128    0.3099 C.3       1 ACP         0.1095
     20 O2'        -0.2103    1.4454    1.4152 O.3       1 ACP        -0.5953
     21 C1'         0.6219    1.9765   -0.7844 C.3       1 ACP         0.4273
     22 N9          0.4237    1.4496   -2.1357 N.pl3     1 ACP        -0.6934
     23 C8         -0.6990    0.8143   -2.5962 C.ar      1 ACP         0.5422
     24 N7         -0.5842    0.4561   -3.8580 N.2       1 ACP        -0.5596
     25 C5          0.6674    0.8775   -4.2308 C.ar      1 ACP        -0.2259
     26 C6          1.3671    0.7929   -5.4304 C.ar      1 ACP         0.7526
     27 N6          0.7907    0.1795   -6.5558 N.pl3     1 ACP        -0.9660
     28 N1          2.6167    1.3114   -5.5022 N.ar      1 ACP        -0.8027
     29 C2          3.1190    1.8905   -4.3849 C.ar      1 ACP         0.6758
     30 N3          2.5420    2.0322   -3.1717 N.ar      1 ACP        -0.7221
     31 C4          1.3113    1.4986   -3.1725 C.ar      1 ACP         0.5858
     32 HOG2       10.6075    0.3425    3.7409 H         1 ACP         0.4705
     33 HOG3        8.9733    1.7273    1.4551 H         1 ACP         0.4705
     34 H3B1        7.2611   -1.3863    2.9745 H         1 ACP         0.1189
     35 H3B2        7.0549    0.3321    2.6500 H         1 ACP         0.1189
     36 HOA2        6.1250    2.9792   -2.2976 H         1 ACP         0.4679
     37 H5'1        4.6066    1.5623    1.0942 H         1 ACP         0.0587
     38 H5'2        4.4821    2.9842    0.0261 H         1 ACP         0.0587
     39 H4'         2.3752    2.7029    1.3156 H         1 ACP         0.0938
     40 H3'         2.4336   -0.1217   -0.0016 H         1 ACP         0.0597
     41 HO3'        1.7160   -0.6716    2.0397 H         1 ACP         0.4554
     42 H2'         0.0316    0.0155   -0.0339 H         1 ACP         0.0710
     43 HO2'       -0.1608    0.7921    2.1351 H         1 ACP         0.4360
     44 H1'        -0.1474    2.7798   -0.6651 H         1 ACP         0.1247
     45 H8         -1.5636    0.6429   -1.9696 H         1 ACP         0.0875
     46 HN61       -0.1155   -0.2418   -6.4776 H         1 ACP         0.4433
     47 HN62        1.3291    0.0869   -7.3963 H         1 ACP         0.4433
     48 H2          4.1215    2.2946   -4.4783 H         1 ACP         0.0459
@<TRIPOS>BOND
     1    1    2 2
     2    1    3 1
     3    1    4 1
     4    1    8 1
     5    3   32 1
     6    4   33 1
     7    5    6 2
     8    5    7 1
     9    5    8 1
    10    5   12 1
    11    8   34 1
    12    8   35 1
    13    9   10 2
    14    9   11 1
    15    9   12 1
    16    9   13 1
    17   11   36 1
    18   13   14 1
    19   14   15 1
    20   14   37 1
    21   14   38 1
    22   15   16 1
    23   15   17 1
    24   15   39 1
    25   16   21 1
    26   17   18 1
    27   17   19 1
    28   17   40 1
    29   18   41 1
    30   19   20 1
    31   19   21 1
    32   19   42 1
    33   20   43 1
    34   21   22 1
    35   21   44 1
    36   22   23 ar
    37   22   31 ar
    38   23   24 ar
    39   23   45 1
    40   24   25 ar
    41   25   26 ar
    42   25   31 ar
    43   26   27 1
    44   26   28 ar
    45   27   46 1
    46   27   47 1
    47   28   29 ar
    48   29   30 ar
    49   29   48 1
    50   30   31 ar
@<TRIPOS>SUBSTRUCTURE
     1 ACP         1 GROUP 0 A     ****
@<TRIPOS>MOLECULE
[[5-(6-aminopurin-9-yl)-3,4-dihydroxy-tetrahydrofuran-2-yl]methoxy-hydroxy-phosphoryl]oxy-(phosphonomethyl)phosphinate
   48    50     1     0     0
SMALL
USER_CHARGES

@<TRIPOS>ATOM
      1 PG         -1.3524   -2.3548   -5.3509 P.3       1 ACP         1.6292
      2 O1G        -2.5747   -2.5482   -6.1970 O.2       1 ACP        -0.8674
      3 O2G        -1.6125   -1.7212   -3.8877 O.3       1 ACP        -0.7977
      4 O3G        -0.5051   -3.6947   -5.0403 O.3       1 ACP        -0.7977
      5 PB         -0.4855    0.5196   -6.4777 P.3       1 ACP         1.4910
      6 O1B        -1.6124    0.5210   -7.4845 O.co2     1 ACP        -0.8292
      7 O2B         0.8362    1.2009   -6.7466 O.co2     1 ACP        -0.8292
      8 C3B        -0.1185   -1.2468   -6.0695 C.3       1 ACP        -0.6453
      9 PA         -1.7713    2.3561   -4.5629 P.3       1 ACP         1.7996
     10 O1A        -3.0473    2.6678   -5.2898 O.2       1 ACP        -0.8588
     11 O2A        -0.6107    3.4686   -4.7436 O.3       1 ACP        -0.8037
     12 O3A        -1.0553    0.9802   -5.0212 O.3       1 ACP        -0.7988
     13 O5'        -1.9198    2.1711   -2.9623 O.3       1 ACP        -0.5960
     14 C5'        -0.7794    1.8744   -2.1748 C.3       1 ACP         0.1917
     15 C4'        -0.9699    2.4597   -0.7819 C.3       1 ACP         0.0908
     16 O4'        -2.1475    1.8640   -0.2014 O.3       1 ACP        -0.4111
     17 C3'         0.1697    2.1347    0.1695 C.3       1 ACP         0.0927
     18 O3'         0.1809    3.0982    1.2223 O.3       1 ACP        -0.6127
     19 C2'        -0.2543    0.7880    0.7187 C.3       1 ACP         0.1095
     20 O2'         0.3606    0.4944    1.9582 O.3       1 ACP        -0.5953
     21 C1'        -1.7682    0.9516    0.8548 C.3       1 ACP         0.4273
     22 N9         -2.5926   -0.2553    0.7436 N.pl3     1 ACP        -0.6934
     23 C8         -3.8700   -0.3163    0.2529 C.ar      1 ACP         0.5422
     24 N7         -4.3522   -1.5414    0.2751 N.2       1 ACP        -0.5596
     25 C5         -3.3434   -2.3070    0.8036 C.ar      1 ACP        -0.2259
     26 C6         -3.2433   -3.6673    1.0777 C.ar      1 ACP         0.7526
     27 N6         -4.3152   -4.5349    0.8066 N.pl3     1 ACP        -0.9660
     28 N1         -2.0949   -4.1491    1.6112 N.ar      1 ACP        -0.8027
     29 C2         -1.0966   -3.2647    1.8500 C.ar      1 ACP         0.6758
     30 N3         -1.0746   -1.9321    1.6291 N.ar      1 ACP        -0.7221
     31 C4         -2.2390   -1.5249    1.1020 C.ar      1 ACP         0.5858
     32 HOG2       -2.0235   -0.8330   -3.8204 H         1 ACP         0.4705
     33 HOG3       -0.9417   -4.4339   -4.5658 H         1 ACP         0.4705
     34 H3B1        0.7340   -1.2261   -5.3812 H         1 ACP         0.1189
     35 H3B2        0.2345   -1.7049   -7.0005 H         1 ACP         0.1189
     36 HOA2       -0.2786    3.6652   -5.6454 H         1 ACP         0.4679
     37 H5'1       -0.6593    0.7876   -2.1195 H         1 ACP         0.0587
     38 H5'2        0.1050    2.3070   -2.6537 H         1 ACP         0.0587
     39 H4'        -1.1469    3.5409   -0.8523 H         1 ACP         0.0938
     40 H3'         1.1601    2.1310   -0.2934 H         1 ACP         0.0597
     41 HO3'        0.3098    3.9616    0.8017 H         1 ACP         0.4554
     42 H2'        -0.0024   -0.0091    0.0062 H         1 ACP         0.0710
     43 HO2'        1.3225    0.4909    1.8095 H         1 ACP         0.4360
     44 H1'        -2.0584    1.4255    1.8301 H         1 ACP         0.1247
     45 H8         -4.3937    0.5597   -0.1045 H         1 ACP         0.0875
     46 HN61       -5.1761   -4.1600    0.4557 H         1 ACP         0.4433
     47 HN62       -4.2402   -5.5032    1.0550 H         1 ACP         0.4433
     48 H2         -0.1923   -3.6849    2.2775 H         1 ACP         0.0459
@<TRIPOS>BOND
     1    1    2 2
     2    1    3 1
     3    1    4 1
     4    1    8 1
     5    3   32 1
     6    4   33 1
     7    5    6 2
     8    5    7 1
     9    5    8 1
    10    5   12 1
    11    8   34 1
    12    8   35 1
    13    9   10 2
    14    9   11 1
    15    9   12 1
    16    9   13 1
    17   11   36 1
    18   13   14 1
    19   14   15 1
    20   14   37 1
    21   14   38 1
    22   15   16 1
    23   15   17 1
    24   15   39 1
    25   16   21 1
    26   17   18 1
    27   17   19 1
    28   17   40 1
    29   18   41 1
    30   19   20 1
    31   19   21 1
    32   19   42 1
    33   20   43 1
    34   21   22 1
    35   21   44 1
    36   22   23 ar
    37   22   31 ar
    38   23   24 ar
    39   23   45 1
    40   24   25 ar
    41   25   26 ar
    42   25   31 ar
    43   26   27 1
    44   26   28 ar
    45   27   46 1
    46   27   47 1
    47   28   29 ar
    48   29   30 ar
    49   29   48 1
    50   30   31 ar
@<TRIPOS>SUBSTRUCTURE
     1 ACP         1 GROUP 0 A     ****
@<TRIPOS>MOLECULE
[[5-(6-aminopurin-9-yl)-3,4-dihydroxy-tetrahydrofuran-2-yl]methoxy-hydroxy-phosphoryl]oxy-(phosphonomethyl)phosphinate
   48    50     1     0     0
SMALL
USER_CHARGES

@<TRIPOS>ATOM
      1 PG         -1.2038    7.2383    0.6564 P.3       1 ACP         1.6292
      2 O1G        -0.4927    6.1783    1.4426 O.2       1 ACP        -0.8674
      3 O2G        -2.4656    7.9242    1.3963 O.3       1 ACP        -0.7977
      4 O3G        -0.2949    8.4966    0.2089 O.3       1 ACP        -0.7977
      5 PB         -3.1727    5.3187   -0.9933 P.3       1 ACP         1.4910
      6 O1B        -3.5101    5.1153   -2.4522 O.co2     1 ACP        -0.8292
      7 O2B        -4.2279    5.6333    0.0416 O.co2     1 ACP        -0.8292
      8 C3B        -1.9030    6.6611   -0.9070 C.3       1 ACP        -0.6453
      9 PA         -2.5393    2.4968   -0.4201 P.3       1 ACP         1.7996
     10 O1A        -2.8231    1.8710   -1.7548 O.2       1 ACP        -0.8588
     11 O2A        -3.7479    2.3698    0.6478 O.3       1 ACP        -0.8037
     12 O3A        -2.2418    4.0857   -0.4722 O.3       1 ACP        -0.7988
     13 O5'        -1.2435    1.9111    0.3519 O.3       1 ACP        -0.5960
     14 C5'        -0.8811    2.4285    1.6206 C.3       1 ACP         0.1917
     15 C4'        -0.1994    1.3333    2.4288 C.3       1 ACP         0.0908
     16 O4'        -1.1285    0.2356    2.5840 O.3       1 ACP        -0.4111
     17 C3'         1.0324    0.7610    1.7344 C.3       1 ACP         0.0927
     18 O3'         1.9175    0.2377    2.7247 O.3       1 ACP        -0.6127
     19 C2'         0.4468   -0.3802    0.9263 C.3       1 ACP         0.1095
     20 O2'         1.3993   -1.3703    0.5961 O.3       1 ACP        -0.5953
     21 C1'        -0.6159   -0.9100    1.8769 C.3       1 ACP         0.4273
     22 N9         -1.7127   -1.6108    1.2130 N.pl3     1 ACP        -0.6934
     23 C8         -1.6230   -2.3308    0.0513 C.ar      1 ACP         0.5422
     24 N7         -2.7800   -2.8517   -0.3004 N.2       1 ACP        -0.5596
     25 C5         -3.6574   -2.4511    0.6758 C.ar      1 ACP        -0.2259
     26 C6         -5.0170   -2.6775    0.8654 C.ar      1 ACP         0.7526
     27 N6         -5.7504   -3.4510   -0.0504 N.pl3     1 ACP        -0.9660
     28 N1         -5.6292   -2.1415    1.9486 N.ar      1 ACP        -0.8027
     29 C2         -4.8703   -1.4055    2.7961 C.ar      1 ACP         0.6758
     30 N3         -3.5527   -1.1170    2.7199 N.ar      1 ACP        -0.7221
     31 C4         -3.0124   -1.6774    1.6275 C.ar      1 ACP         0.5858
     32 HOG2       -2.9682    8.6245    0.9281 H         1 ACP         0.4705
     33 HOG3        0.1377    9.0406    0.9011 H         1 ACP         0.4705
     34 H3B1       -2.3512    7.5316   -1.3992 H         1 ACP         0.1189
     35 H3B2       -1.0709    6.3308   -1.5392 H         1 ACP         0.1189
     36 HOA2       -4.0551    1.4766    0.9123 H         1 ACP         0.4679
     37 H5'1       -0.2031    3.2762    1.4777 H         1 ACP         0.0587
     38 H5'2       -1.7839    2.7764    2.1331 H         1 ACP         0.0587
     39 H4'         0.0402    1.7079    3.4342 H         1 ACP         0.0938
     40 H3'         1.5907    1.4859    1.1353 H         1 ACP         0.0597
     41 HO3'        2.6839   -0.1150    2.2479 H         1 ACP         0.4554
     42 H2'        -0.0017    0.0018    0.0005 H         1 ACP         0.0710
     43 HO2'        2.0953   -0.9375    0.0709 H         1 ACP         0.4360
     44 H1'        -0.1998   -1.6319    2.6178 H         1 ACP         0.1247
     45 H8         -0.6932   -2.4401   -0.4900 H         1 ACP         0.0875
     46 HN61       -5.2972   -3.8032   -0.8723 H         1 ACP         0.4433
     47 HN62       -6.7381   -3.5629    0.0791 H         1 ACP         0.4433
     48 H2         -5.3929   -0.9917    3.6520 H         1 ACP         0.0459
@<TRIPOS>BOND
     1    1    2 2
     2    1    3 1
     3    1    4 1
     4    1    8 1
     5    3   32 1
     6    4   33 1
     7    5    6 2
     8    5    7 1
     9    5    8 1
    10    5   12 1
    11    8   34 1
    12    8   35 1
    13    9   10 2
    14    9   11 1
    15    9   12 1
    16    9   13 1
    17   11   36 1
    18   13   14 1
    19   14   15 1
    20   14   37 1
    21   14   38 1
    22   15   16 1
    23   15   17 1
    24   15   39 1
    25   16   21 1
    26   17   18 1
    27   17   19 1
    28   17   40 1
    29   18   41 1
    30   19   20 1
    31   19   21 1
    32   19   42 1
    33   20   43 1
    34   21   22 1
    35   21   44 1
    36   22   23 ar
    37   22   31 ar
    38   23   24 ar
    39   23   45 1
    40   24   25 ar
    41   25   26 ar
    42   25   31 ar
    43   26   27 1
    44   26   28 ar
    45   27   46 1
    46   27   47 1
    47   28   29 ar
    48   29   30 ar
    49   29   48 1
    50   30   31 ar
@<TRIPOS>SUBSTRUCTURE
     1 ACP         1 GROUP 0 A     ****
@<TRIPOS>MOLECULE
[[5-(6-aminopurin-9-yl)-3,4-dihydroxy-tetrahydrofuran-2-yl]methoxy-hydroxy-phosphoryl]oxy-(phosphonomethyl)phosphinate
   48    50     1     0     0
SMALL
USER_CHARGES

@<TRIPOS>ATOM
      1 PG         -4.8812    6.8789    1.8639 P.3       1 ACP         1.6292
      2 O1G        -6.3619    6.6992    2.0142 O.2       1 ACP        -0.8674
      3 O2G        -4.2944    6.6077    0.3833 O.3       1 ACP        -0.7977
      4 O3G        -4.3203    8.3484    2.2324 O.3       1 ACP        -0.7977
      5 PB         -2.0405    5.8173    2.9061 P.3       1 ACP         1.4910
      6 O1B        -1.5748    4.7761    3.8974 O.co2     1 ACP        -0.8292
      7 O2B        -1.6156    7.2645    2.9983 O.co2     1 ACP        -0.8292
      8 C3B        -3.8900    5.7877    2.9095 C.3       1 ACP        -0.6453
      9 PA         -0.4421    4.8274    0.6350 P.3       1 ACP         1.7996
     10 O1A         0.5938    5.9089    0.5310 O.2       1 ACP        -0.8588
     11 O2A        -0.9616    4.2610   -0.7886 O.3       1 ACP        -0.8037
     12 O3A        -1.8029    5.2700    1.3888 O.3       1 ACP        -0.7988
     13 O5'         0.0170    3.5129    1.4593 O.3       1 ACP        -0.5960
     14 C5'        -0.8811    2.4285    1.6206 C.3       1 ACP         0.1917
     15 C4'        -0.1994    1.3333    2.4288 C.3       1 ACP         0.0908
     16 O4'        -1.1285    0.2356    2.5840 O.3       1 ACP        -0.4111
     17 C3'         1.0324    0.7610    1.7344 C.3       1 ACP         0.0927
     18 O3'         1.9175    0.2377    2.7247 O.3       1 ACP        -0.6127
     19 C2'         0.4468   -0.3802    0.9263 C.3       1 ACP         0.1095
     20 O2'         1.3993   -1.3703    0.5961 O.3       1 ACP        -0.5953
     21 C1'        -0.6159   -0.9100    1.8769 C.3       1 ACP         0.4273
     22 N9         -1.7127   -1.6108    1.2130 N.pl3     1 ACP        -0.6934
     23 C8         -1.6230   -2.3308    0.0513 C.ar      1 ACP         0.5422
     24 N7         -2.7800   -2.8517   -0.3004 N.2       1 ACP        -0.5596
     25 C5         -3.6574   -2.4511    0.6758 C.ar      1 ACP        -0.2259
     26 C6         -5.0170   -2.6775    0.8654 C.ar      1 ACP         0.7526
     27 N6         -5.7504   -3.4510   -0.0504 N.pl3     1 ACP        -0.9660
     28 N1         -5.6292   -2.1415    1.9486 N.ar      1 ACP        -0.8027
     29 C2         -4.8703   -1.4055    2.7961 C.ar      1 ACP         0.6758
     30 N3         -3.5527   -1.1170    2.7199 N.ar      1 ACP        -0.7221
     31 C4         -3.0124   -1.6774    1.6275 C.ar      1 ACP         0.5858
     32 HOG2       -3.3314    6.7106    0.2274 H         1 ACP         0.4705
     33 HOG3       -4.6512    9.1232    1.7300 H         1 ACP         0.4705
     34 H3B1       -4.1923    5.9746    3.9461 H         1 ACP         0.1189
     35 H3B2       -4.1759    4.7560    2.6750 H         1 ACP         0.1189
     36 HOA2       -1.3885    4.8804   -1.4181 H         1 ACP         0.4679
     37 H5'1       -1.7775    2.7842    2.1389 H         1 ACP         0.0587
     38 H5'2       -1.1659    2.0534    0.6322 H         1 ACP         0.0587
     39 H4'         0.0402    1.7079    3.4342 H         1 ACP         0.0938
     40 H3'         1.5907    1.4859    1.1353 H         1 ACP         0.0597
     41 HO3'        2.1521    0.9800    3.3017 H         1 ACP         0.4554
     42 H2'        -0.0017    0.0018    0.0005 H         1 ACP         0.0710
     43 HO2'        1.7495   -1.7243    1.4324 H         1 ACP         0.4360
     44 H1'        -0.1998   -1.6319    2.6178 H         1 ACP         0.1247
     45 H8         -0.6932   -2.4401   -0.4900 H         1 ACP         0.0875
     46 HN61       -5.2973   -3.8032   -0.8723 H         1 ACP         0.4433
     47 HN62       -6.7381   -3.5629    0.0791 H         1 ACP         0.4433
     48 H2         -5.3929   -0.9917    3.6520 H         1 ACP         0.0459
@<TRIPOS>BOND
     1    1    2 2
     2    1    3 1
     3    1    4 1
     4    1    8 1
     5    3   32 1
     6    4   33 1
     7    5    6 2
     8    5    7 1
     9    5    8 1
    10    5   12 1
    11    8   34 1
    12    8   35 1
    13    9   10 2
    14    9   11 1
    15    9   12 1
    16    9   13 1
    17   11   36 1
    18   13   14 1
    19   14   15 1
    20   14   37 1
    21   14   38 1
    22   15   16 1
    23   15   17 1
    24   15   39 1
    25   16   21 1
    26   17   18 1
    27   17   19 1
    28   17   40 1
    29   18   41 1
    30   19   20 1
    31   19   21 1
    32   19   42 1
    33   20   43 1
    34   21   22 1
    35   21   44 1
    36   22   23 ar
    37   22   31 ar
    38   23   24 ar
    39   23   45 1
    40   24   25 ar
    41   25   26 ar
    42   25   31 ar
    43   26   27 1
    44   26   28 ar
    45   27   46 1
    46   27   47 1
    47   28   29 ar
    48   29   30 ar
    49   29   48 1
    50   30   31 ar
@<TRIPOS>SUBSTRUCTURE
     1 ACP         1 GROUP 0 A     ****
@<TRIPOS>MOLECULE
[[5-(6-aminopurin-9-yl)-3,4-dihydroxy-tetrahydrofuran-2-yl]methoxy-hydroxy-phosphoryl]oxy-(phosphonomethyl)phosphinate
   48    50     1     0     0
SMALL
USER_CHARGES

@<TRIPOS>ATOM
      1 PG          1.4963    5.4857   -0.6034 P.3       1 ACP         1.6292
      2 O1G         1.0279    4.3752   -1.4949 O.2       1 ACP        -0.8674
      3 O2G         2.1267    5.0236    0.8105 O.3       1 ACP        -0.7977
      4 O3G         2.6333    6.4461   -1.2314 O.3       1 ACP        -0.7977
      5 PB         -1.3068    6.1237    0.8174 P.3       1 ACP         1.4910
      6 O1B        -2.0269    5.1004   -0.0299 O.co2     1 ACP        -0.8292
      7 O2B        -1.9848    7.3795    1.3140 O.co2     1 ACP        -0.8292
      8 C3B         0.1994    6.6479   -0.1196 C.3       1 ACP        -0.6453
      9 PA         -1.1637    4.4705    3.2544 P.3       1 ACP         1.7996
     10 O1A        -2.1590    5.1765    4.1288 O.2       1 ACP        -0.8588
     11 O2A         0.1513    3.9395    4.0330 O.3       1 ACP        -0.8037
     12 O3A        -0.5591    5.3752    2.0579 O.3       1 ACP        -0.7988
     13 O5'        -1.7334    3.1724    2.4742 O.3       1 ACP        -0.5960
     14 C5'        -0.8811    2.4285    1.6206 C.3       1 ACP         0.1917
     15 C4'        -0.1994    1.3333    2.4288 C.3       1 ACP         0.0908
     16 O4'        -1.1285    0.2356    2.5840 O.3       1 ACP        -0.4111
     17 C3'         1.0324    0.7610    1.7344 C.3       1 ACP         0.0927
     18 O3'         1.9175    0.2377    2.7247 O.3       1 ACP        -0.6127
     19 C2'         0.4468   -0.3802    0.9263 C.3       1 ACP         0.1095
     20 O2'         1.3993   -1.3703    0.5961 O.3       1 ACP        -0.5953
     21 C1'        -0.6159   -0.9100    1.8769 C.3       1 ACP         0.4273
     22 N9         -1.7127   -1.6108    1.2130 N.pl3     1 ACP        -0.6934
     23 C8         -2.0877   -2.9101    1.4304 C.ar      1 ACP         0.5422
     24 N7         -3.1152   -3.2613    0.6857 N.2       1 ACP        -0.5596
     25 C5         -3.4186   -2.1409   -0.0462 C.ar      1 ACP        -0.2259
     26 C6         -4.3953   -1.8809   -1.0023 C.ar      1 ACP         0.7526
     27 N6         -5.3118   -2.8767   -1.3812 N.pl3     1 ACP        -0.9660
     28 N1         -4.4538   -0.6507   -1.5667 N.ar      1 ACP        -0.8027
     29 C2         -3.5442    0.2679   -1.1609 C.ar      1 ACP         0.6758
     30 N3         -2.5561    0.1361   -0.2491 N.ar      1 ACP        -0.7221
     31 C4         -2.5568   -1.1019    0.2674 C.ar      1 ACP         0.5858
     32 HOG2        1.5698    4.5111    1.4345 H         1 ACP         0.4705
     33 HOG3        3.4908    6.0537   -1.5018 H         1 ACP         0.4705
     34 H3B1        0.6759    7.4262    0.4871 H         1 ACP         0.1189
     35 H3B2       -0.1660    7.1335   -1.0316 H         1 ACP         0.1189
     36 HOA2        0.7232    4.5888    4.4950 H         1 ACP         0.4679
     37 H5'1       -1.4795    1.9921    0.8142 H         1 ACP         0.0587
     38 H5'2       -0.1362    3.1035    1.1868 H         1 ACP         0.0587
     39 H4'         0.0402    1.7079    3.4342 H         1 ACP         0.0938
     40 H3'         1.5907    1.4859    1.1353 H         1 ACP         0.0597
     41 HO3'        2.6839   -0.1150    2.2479 H         1 ACP         0.4554
     42 H2'        -0.0017    0.0018    0.0005 H         1 ACP         0.0710
     43 HO2'        2.0953   -0.9375    0.0709 H         1 ACP         0.4360
     44 H1'        -0.1998   -1.6319    2.6178 H         1 ACP         0.1247
     45 H8         -1.5778   -3.5473    2.1399 H         1 ACP         0.0875
     46 HN61       -5.2294   -3.7965   -0.9914 H         1 ACP         0.4433
     47 HN62       -5.9774   -2.6837   -2.1055 H         1 ACP         0.4433
     48 H2         -3.6201    1.2414   -1.6336 H         1 ACP         0.0459
@<TRIPOS>BOND
     1    1    2 2
     2    1    3 1
     3    1    4 1
     4    1    8 1
     5    3   32 1
     6    4   33 1
     7    5    6 2
     8    5    7 1
     9    5    8 1
    10    5   12 1
    11    8   34 1
    12    8   35 1
    13    9   10 2
    14    9   11 1
    15    9   12 1
    16    9   13 1
    17   11   36 1
    18   13   14 1
    19   14   15 1
    20   14   37 1
    21   14   38 1
    22   15   16 1
    23   15   17 1
    24   15   39 1
    25   16   21 1
    26   17   18 1
    27   17   19 1
    28   17   40 1
    29   18   41 1
    30   19   20 1
    31   19   21 1
    32   19   42 1
    33   20   43 1
    34   21   22 1
    35   21   44 1
    36   22   23 ar
    37   22   31 ar
    38   23   24 ar
    39   23   45 1
    40   24   25 ar
    41   25   26 ar
    42   25   31 ar
    43   26   27 1
    44   26   28 ar
    45   27   46 1
    46   27   47 1
    47   28   29 ar
    48   29   30 ar
    49   29   48 1
    50   30   31 ar
@<TRIPOS>SUBSTRUCTURE
     1 ACP         1 GROUP 0 A     ****
@<TRIPOS>MOLECULE
[[5-(6-aminopurin-9-yl)-3,4-dihydroxy-tetrahydrofuran-2-yl]methoxy-hydroxy-phosphoryl]oxy-(phosphonomethyl)phosphinate
   48    50     1     0     0
SMALL
USER_CHARGES

@<TRIPOS>ATOM
      1 PG         -2.8396   -0.2792   -5.5007 P.3       1 ACP         1.6292
      2 O1G        -2.0317   -1.0905   -4.5330 O.2       1 ACP        -0.8674
      3 O2G        -3.7628   -1.1280   -6.5192 O.3       1 ACP        -0.7977
      4 O3G        -3.8727    0.7685   -4.8337 O.3       1 ACP        -0.7977
      5 PB         -0.7217    2.0816   -5.9741 P.3       1 ACP         1.4910
      6 O1B        -1.5673    3.0645   -5.1979 O.co2     1 ACP        -0.8292
      7 O2B         0.1532    2.5082   -7.1299 O.co2     1 ACP        -0.8292
      8 C3B        -1.8547    0.7614   -6.6024 C.3       1 ACP        -0.6453
      9 PA          1.2447    1.5969   -3.8314 P.3       1 ACP         1.7996
     10 O1A         2.4439    2.3084   -4.3878 O.2       1 ACP        -0.8588
     11 O2A         1.5839    0.2084   -3.0736 O.3       1 ACP        -0.8037
     12 O3A         0.1441    1.1693   -4.9366 O.3       1 ACP        -0.7988
     13 O5'         0.3749    2.4474   -2.7646 O.3       1 ACP        -0.5960
     14 C5'        -0.7794    1.8744   -2.1748 C.3       1 ACP         0.1917
     15 C4'        -0.9699    2.4597   -0.7819 C.3       1 ACP         0.0908
     16 O4'        -2.1475    1.8640   -0.2014 O.3       1 ACP        -0.4111
     17 C3'         0.1697    2.1347    0.1695 C.3       1 ACP         0.0927
     18 O3'         0.1809    3.0982    1.2223 O.3       1 ACP        -0.6127
     19 C2'        -0.2543    0.7880    0.7187 C.3       1 ACP         0.1095
     20 O2'         0.3606    0.4944    1.9582 O.3       1 ACP        -0.5953
     21 C1'        -1.7682    0.9516    0.8548 C.3       1 ACP         0.4273
     22 N9         -2.5926   -0.2553    0.7436 N.pl3     1 ACP        -0.6934
     23 C8         -3.8700   -0.3163    0.2529 C.ar      1 ACP         0.5422
     24 N7         -4.3522   -1.5414    0.2751 N.2       1 ACP        -0.5596
     25 C5         -3.3434   -2.3070    0.8036 C.ar      1 ACP        -0.2259
     26 C6         -3.2433   -3.6673    1.0777 C.ar      1 ACP         0.7526
     27 N6         -4.3152   -4.5349    0.8066 N.pl3     1 ACP        -0.9660
     28 N1         -2.0949   -4.1491    1.6112 N.ar      1 ACP        -0.8027
     29 C2         -1.0966   -3.2647    1.8500 C.ar      1 ACP         0.6758
     30 N3         -1.0746   -1.9321    1.6291 N.ar      1 ACP        -0.7221
     31 C4         -2.2390   -1.5249    1.1020 C.ar      1 ACP         0.5858
     32 HOG2       -3.3351   -1.7665   -7.1288 H         1 ACP         0.4705
     33 HOG3       -4.5793    0.4293   -4.2438 H         1 ACP         0.4705
     34 H3B1       -1.2313    0.0910   -7.2048 H         1 ACP         0.1189
     35 H3B2       -2.5458    1.2595   -7.2918 H         1 ACP         0.1189
     36 HOA2        2.0222   -0.5111   -3.5759 H         1 ACP         0.4679
     37 H5'1       -1.6471    2.0964   -2.8045 H         1 ACP         0.0587
     38 H5'2       -0.6478    0.7889   -2.1188 H         1 ACP         0.0587
     39 H4'        -1.1469    3.5409   -0.8523 H         1 ACP         0.0938
     40 H3'         1.1601    2.1310   -0.2934 H         1 ACP         0.0597
     41 HO3'        0.3098    3.9616    0.8017 H         1 ACP         0.4554
     42 H2'        -0.0024   -0.0091    0.0062 H         1 ACP         0.0710
     43 HO2'        1.3225    0.4909    1.8095 H         1 ACP         0.4360
     44 H1'        -2.0584    1.4255    1.8301 H         1 ACP         0.1247
     45 H8         -4.3937    0.5597   -0.1045 H         1 ACP         0.0875
     46 HN61       -5.1761   -4.1600    0.4557 H         1 ACP         0.4433
     47 HN62       -4.2402   -5.5032    1.0550 H         1 ACP         0.4433
     48 H2         -0.1923   -3.6849    2.2775 H         1 ACP         0.0459
@<TRIPOS>BOND
     1    1    2 2
     2    1    3 1
     3    1    4 1
     4    1    8 1
     5    3   32 1
     6    4   33 1
     7    5    6 2
     8    5    7 1
     9    5    8 1
    10    5   12 1
    11    8   34 1
    12    8   35 1
    13    9   10 2
    14    9   11 1
    15    9   12 1
    16    9   13 1
    17   11   36 1
    18   13   14 1
    19   14   15 1
    20   14   37 1
    21   14   38 1
    22   15   16 1
    23   15   17 1
    24   15   39 1
    25   16   21 1
    26   17   18 1
    27   17   19 1
    28   17   40 1
    29   18   41 1
    30   19   20 1
    31   19   21 1
    32   19   42 1
    33   20   43 1
    34   21   22 1
    35   21   44 1
    36   22   23 ar
    37   22   31 ar
    38   23   24 ar
    39   23   45 1
    40   24   25 ar
    41   25   26 ar
    42   25   31 ar
    43   26   27 1
    44   26   28 ar
    45   27   46 1
    46   27   47 1
    47   28   29 ar
    48   29   30 ar
    49   29   48 1
    50   30   31 ar
@<TRIPOS>SUBSTRUCTURE
     1 ACP         1 GROUP 0 A     ****
@<TRIPOS>MOLECULE
[[5-(6-aminopurin-9-yl)-3,4-dihydroxy-tetrahydrofuran-2-yl]methoxy-hydroxy-phosphoryl]oxy-(phosphonomethyl)phosphinate
   48    50     1     0     0
SMALL
USER_CHARGES

@<TRIPOS>ATOM
      1 PG         -2.9276   -2.8691   -3.2637 P.3       1 ACP         1.6292
      2 O1G        -3.1052   -1.8024   -2.2255 O.2       1 ACP        -0.8674
      3 O2G        -2.5832   -4.3419   -2.6959 O.3       1 ACP        -0.7977
      4 O3G        -4.2016   -3.1200   -4.2249 O.3       1 ACP        -0.7977
      5 PB         -1.5533   -1.0592   -5.5261 P.3       1 ACP         1.4910
      6 O1B        -2.7923   -1.1088   -6.3899 O.co2     1 ACP        -0.8292
      7 O2B        -0.1644   -0.9662   -6.1141 O.co2     1 ACP        -0.8292
      8 C3B        -1.5874   -2.5517   -4.4341 C.3       1 ACP        -0.6453
      9 PA         -1.9945    1.6688   -4.4986 P.3       1 ACP         1.7996
     10 O1A        -3.2503    2.0428   -5.2313 O.2       1 ACP        -0.8588
     11 O2A        -0.6345    2.2202   -5.1794 O.3       1 ACP        -0.8037
     12 O3A        -1.7390    0.0769   -4.3715 O.3       1 ACP        -0.7988
     13 O5'        -1.9198    2.1711   -2.9623 O.3       1 ACP        -0.5960
     14 C5'        -0.7794    1.8744   -2.1748 C.3       1 ACP         0.1917
     15 C4'        -0.9699    2.4597   -0.7819 C.3       1 ACP         0.0908
     16 O4'        -2.1475    1.8640   -0.2014 O.3       1 ACP        -0.4111
     17 C3'         0.1697    2.1347    0.1695 C.3       1 ACP         0.0927
     18 O3'         0.1809    3.0982    1.2223 O.3       1 ACP        -0.6127
     19 C2'        -0.2543    0.7880    0.7187 C.3       1 ACP         0.1095
     20 O2'         0.3606    0.4944    1.9582 O.3       1 ACP        -0.5953
     21 C1'        -1.7682    0.9516    0.8548 C.3       1 ACP         0.4273
     22 N9         -2.5926   -0.2553    0.7436 N.pl3     1 ACP        -0.6934
     23 C8         -3.8700   -0.3163    0.2529 C.ar      1 ACP         0.5422
     24 N7         -4.3522   -1.5414    0.2751 N.2       1 ACP        -0.5596
     25 C5         -3.3434   -2.3070    0.8036 C.ar      1 ACP        -0.2259
     26 C6         -3.2433   -3.6673    1.0777 C.ar      1 ACP         0.7526
     27 N6         -4.3152   -4.5349    0.8066 N.pl3     1 ACP        -0.9660
     28 N1         -2.0949   -4.1491    1.6112 N.ar      1 ACP        -0.8027
     29 C2         -1.0966   -3.2647    1.8500 C.ar      1 ACP         0.6758
     30 N3         -1.0746   -1.9321    1.6291 N.ar      1 ACP        -0.7221
     31 C4         -2.2390   -1.5249    1.1020 C.ar      1 ACP         0.5858
     32 HOG2       -1.7689   -4.4678   -2.1636 H         1 ACP         0.4705
     33 HOG3       -5.0533   -3.3948   -3.8232 H         1 ACP         0.4705
     34 H3B1       -0.6566   -2.5236   -3.8563 H         1 ACP         0.1189
     35 H3B2       -1.5212   -3.4172   -5.1032 H         1 ACP         0.1189
     36 HOA2       -0.4163    1.9432   -6.0948 H         1 ACP         0.4679
     37 H5'1       -0.6593    0.7876   -2.1195 H         1 ACP         0.0587
     38 H5'2        0.1050    2.3070   -2.6537 H         1 ACP         0.0587
     39 H4'        -1.1469    3.5409   -0.8523 H         1 ACP         0.0938
     40 H3'         1.1601    2.1310   -0.2934 H         1 ACP         0.0597
     41 HO3'        0.3098    3.9616    0.8017 H         1 ACP         0.4554
     42 H2'        -0.0024   -0.0091    0.0062 H         1 ACP         0.0710
     43 HO2'        1.3225    0.4909    1.8095 H         1 ACP         0.4360
     44 H1'        -2.0584    1.4255    1.8301 H         1 ACP         0.1247
     45 H8         -4.3937    0.5597   -0.1045 H         1 ACP         0.0875
     46 HN61       -5.1761   -4.1600    0.4557 H         1 ACP         0.4433
     47 HN62       -4.2402   -5.5032    1.0550 H         1 ACP         0.4433
     48 H2         -0.1923   -3.6849    2.2775 H         1 ACP         0.0459
@<TRIPOS>BOND
     1    1    2 2
     2    1    3 1
     3    1    4 1
     4    1    8 1
     5    3   32 1
     6    4   33 1
     7    5    6 2
     8    5    7 1
     9    5    8 1
    10    5   12 1
    11    8   34 1
    12    8   35 1
    13    9   10 2
    14    9   11 1
    15    9   12 1
    16    9   13 1
    17   11   36 1
    18   13   14 1
    19   14   15 1
    20   14   37 1
    21   14   38 1
    22   15   16 1
    23   15   17 1
    24   15   39 1
    25   16   21 1
    26   17   18 1
    27   17   19 1
    28   17   40 1
    29   18   41 1
    30   19   20 1
    31   19   21 1
    32   19   42 1
    33   20   43 1
    34   21   22 1
    35   21   44 1
    36   22   23 ar
    37   22   31 ar
    38   23   24 ar
    39   23   45 1
    40   24   25 ar
    41   25   26 ar
    42   25   31 ar
    43   26   27 1
    44   26   28 ar
    45   27   46 1
    46   27   47 1
    47   28   29 ar
    48   29   30 ar
    49   29   48 1
    50   30   31 ar
@<TRIPOS>SUBSTRUCTURE
     1 ACP         1 GROUP 0 A     ****
@<TRIPOS>MOLECULE
[[5-(6-aminopurin-9-yl)-3,4-dihydroxy-tetrahydrofuran-2-yl]methoxy-hydroxy-phosphoryl]oxy-(phosphonomethyl)phosphinate
   48    50     1     0     0
SMALL
USER_CHARGES

@<TRIPOS>ATOM
      1 PG          1.4963    5.4857   -0.6034 P.3       1 ACP         1.6292
      2 O1G         1.0279    4.3752   -1.4949 O.2       1 ACP        -0.8674
      3 O2G         2.1267    5.0236    0.8105 O.3       1 ACP        -0.7977
      4 O3G         2.6333    6.4461   -1.2314 O.3       1 ACP        -0.7977
      5 PB         -1.3068    6.1237    0.8174 P.3       1 ACP         1.4910
      6 O1B        -2.0269    5.1004   -0.0299 O.co2     1 ACP        -0.8292
      7 O2B        -1.9848    7.3795    1.3140 O.co2     1 ACP        -0.8292
      8 C3B         0.1994    6.6479   -0.1196 C.3       1 ACP        -0.6453
      9 PA         -1.1637    4.4705    3.2544 P.3       1 ACP         1.7996
     10 O1A        -2.1590    5.1765    4.1288 O.2       1 ACP        -0.8588
     11 O2A         0.1513    3.9395    4.0330 O.3       1 ACP        -0.8037
     12 O3A        -0.5591    5.3752    2.0579 O.3       1 ACP        -0.7988
     13 O5'        -1.7334    3.1724    2.4742 O.3       1 ACP        -0.5960
     14 C5'        -0.8811    2.4285    1.6206 C.3       1 ACP         0.1917
     15 C4'        -0.1994    1.3333    2.4288 C.3       1 ACP         0.0908
     16 O4'        -1.1285    0.2356    2.5840 O.3       1 ACP        -0.4111
     17 C3'         1.0324    0.7610    1.7344 C.3       1 ACP         0.0927
     18 O3'         1.9175    0.2377    2.7247 O.3       1 ACP        -0.6127
     19 C2'         0.4468   -0.3802    0.9263 C.3       1 ACP         0.1095
     20 O2'         1.3993   -1.3703    0.5961 O.3       1 ACP        -0.5953
     21 C1'        -0.6159   -0.9100    1.8769 C.3       1 ACP         0.4273
     22 N9         -1.7127   -1.6108    1.2130 N.pl3     1 ACP        -0.6934
     23 C8         -3.0342   -1.2519    1.2439 C.ar      1 ACP         0.5422
     24 N7         -3.7886   -2.0756    0.5467 N.2       1 ACP        -0.5596
     25 C5         -2.9179   -3.0087    0.0426 C.ar      1 ACP        -0.2259
     26 C6         -3.1045   -4.1262   -0.7649 C.ar      1 ACP         0.7526
     27 N6         -4.3870   -4.4763   -1.2206 N.pl3     1 ACP        -0.9660
     28 N1         -2.0306   -4.8769   -1.1094 N.ar      1 ACP        -0.8027
     29 C2         -0.8199   -4.4895   -0.6402 C.ar      1 ACP         0.6758
     30 N3         -0.5140   -3.4335    0.1448 N.ar      1 ACP        -0.7221
     31 C4         -1.6202   -2.7371    0.4460 C.ar      1 ACP         0.5858
     32 HOG2        1.5698    4.5111    1.4345 H         1 ACP         0.4705
     33 HOG3        3.4908    6.0537   -1.5018 H         1 ACP         0.4705
     34 H3B1        0.6759    7.4262    0.4871 H         1 ACP         0.1189
     35 H3B2       -0.1660    7.1335   -1.0316 H         1 ACP         0.1189
     36 HOA2        0.7232    4.5888    4.4950 H         1 ACP         0.4679
     37 H5'1       -1.4795    1.9921    0.8142 H         1 ACP         0.0587
     38 H5'2       -0.1362    3.1035    1.1868 H         1 ACP         0.0587
     39 H4'         0.0402    1.7079    3.4342 H         1 ACP         0.0938
     40 H3'         1.5907    1.4859    1.1353 H         1 ACP         0.0597
     41 HO3'        2.6839   -0.1150    2.2479 H         1 ACP         0.4554
     42 H2'        -0.0017    0.0018    0.0005 H         1 ACP         0.0710
     43 HO2'        2.0953   -0.9375    0.0709 H         1 ACP         0.4360
     44 H1'        -0.1998   -1.6319    2.6178 H         1 ACP         0.1247
     45 H8         -3.3847   -0.3852    1.7876 H         1 ACP         0.0875
     46 HN61       -5.1798   -3.9409   -0.9211 H         1 ACP         0.4433
     47 HN62       -4.5065   -5.3114   -1.7621 H         1 ACP         0.4433
     48 H2          0.0171   -5.1133   -0.9354 H         1 ACP         0.0459
@<TRIPOS>BOND
     1    1    2 2
     2    1    3 1
     3    1    4 1
     4    1    8 1
     5    3   32 1
     6    4   33 1
     7    5    6 2
     8    5    7 1
     9    5    8 1
    10    5   12 1
    11    8   34 1
    12    8   35 1
    13    9   10 2
    14    9   11 1
    15    9   12 1
    16    9   13 1
    17   11   36 1
    18   13   14 1
    19   14   15 1
    20   14   37 1
    21   14   38 1
    22   15   16 1
    23   15   17 1
    24   15   39 1
    25   16   21 1
    26   17   18 1
    27   17   19 1
    28   17   40 1
    29   18   41 1
    30   19   20 1
    31   19   21 1
    32   19   42 1
    33   20   43 1
    34   21   22 1
    35   21   44 1
    36   22   23 ar
    37   22   31 ar
    38   23   24 ar
    39   23   45 1
    40   24   25 ar
    41   25   26 ar
    42   25   31 ar
    43   26   27 1
    44   26   28 ar
    45   27   46 1
    46   27   47 1
    47   28   29 ar
    48   29   30 ar
    49   29   48 1
    50   30   31 ar
@<TRIPOS>SUBSTRUCTURE
     1 ACP         1 GROUP 0 A     ****
@<TRIPOS>MOLECULE
[[5-(6-aminopurin-9-yl)-3,4-dihydroxy-tetrahydrofuran-2-yl]methoxy-hydroxy-phosphoryl]oxy-(phosphonomethyl)phosphinate
   48    50     1     0     0
SMALL
USER_CHARGES

@<TRIPOS>ATOM
      1 PG          7.4346    0.1689    3.3398 P.3       1 ACP         1.6292
      2 O1G         6.0748    0.7851    3.2035 O.2       1 ACP        -0.8674
      3 O2G         8.6448    1.2058    3.6049 O.3       1 ACP        -0.7977
      4 O3G         7.5902   -0.9105    4.5316 O.3       1 ACP        -0.7977
      5 PB          8.1785    0.0463    0.2230 P.3       1 ACP         1.4910
      6 O1B         8.6503   -1.0248   -0.7329 O.co2     1 ACP        -0.8292
      7 O2B         8.9406    1.3348    0.4291 O.co2     1 ACP        -0.8292
      8 C3B         7.9850   -0.7475    1.8824 C.3       1 ACP        -0.6453
      9 PA          5.8746    0.9206   -1.3958 P.3       1 ACP         1.7996
     10 O1A         6.0243    0.0318   -2.5963 O.2       1 ACP        -0.8588
     11 O2A         6.4832    2.4075   -1.5854 O.3       1 ACP        -0.8037
     12 O3A         6.6072    0.3762   -0.0606 O.3       1 ACP        -0.7988
     13 O5'         4.3521    1.1579   -0.9020 O.3       1 ACP        -0.5960
     14 C5'         4.0922    1.9801    0.2227 C.3       1 ACP         0.1917
     15 C4'         2.5944    2.0310    0.4653 C.3       1 ACP         0.0908
     16 O4'         1.9327    2.5740   -0.6889 O.3       1 ACP        -0.4111
     17 C3'         1.9685    0.6634    0.6767 C.3       1 ACP         0.0927
     18 O3'         2.1425    0.1975    1.9977 O.3       1 ACP        -0.6127
     19 C2'         0.5176    0.9128    0.3099 C.3       1 ACP         0.1095
     20 O2'        -0.2103    1.4454    1.4152 O.3       1 ACP        -0.5953
     21 C1'         0.6219    1.9765   -0.7844 C.3       1 ACP         0.4273
     22 N9          0.4237    1.4496   -2.1357 N.pl3     1 ACP        -0.6934
     23 C8         -0.6990    0.8143   -2.5962 C.ar      1 ACP         0.5422
     24 N7         -0.5842    0.4561   -3.8580 N.2       1 ACP        -0.5596
     25 C5          0.6674    0.8775   -4.2308 C.ar      1 ACP        -0.2259
     26 C6          1.3671    0.7929   -5.4304 C.ar      1 ACP         0.7526
     27 N6          0.7907    0.1795   -6.5558 N.pl3     1 ACP        -0.9660
     28 N1          2.6167    1.3114   -5.5022 N.ar      1 ACP        -0.8027
     29 C2          3.1190    1.8905   -4.3849 C.ar      1 ACP         0.6758
     30 N3          2.5420    2.0322   -3.1717 N.ar      1 ACP        -0.7221
     31 C4          1.3113    1.4986   -3.1725 C.ar      1 ACP         0.5858
     32 HOG2        9.5566    0.8575    3.7021 H         1 ACP         0.4705
     33 HOG3        7.4243   -0.6257    5.4556 H         1 ACP         0.4705
     34 H3B1        8.9622   -1.1800    2.1253 H         1 ACP         0.1189
     35 H3B2        7.2928   -1.5848    1.7378 H         1 ACP         0.1189
     36 HOA2        6.1250    2.9792   -2.2976 H         1 ACP         0.4679
     37 H5'1        4.6066    1.5623    1.0942 H         1 ACP         0.0587
     38 H5'2        4.4821    2.9842    0.0261 H         1 ACP         0.0587
     39 H4'         2.3752    2.7029    1.3156 H         1 ACP         0.0938
     40 H3'         2.4336   -0.1217   -0.0016 H         1 ACP         0.0597
     41 HO3'        1.7160   -0.6716    2.0397 H         1 ACP         0.4554
     42 H2'         0.0316    0.0155   -0.0339 H         1 ACP         0.0710
     43 HO2'       -1.1270    1.5823    1.1180 H         1 ACP         0.4360
     44 H1'        -0.1474    2.7798   -0.6651 H         1 ACP         0.1247
     45 H8         -1.5636    0.6429   -1.9696 H         1 ACP         0.0875
     46 HN61       -0.1155   -0.2418   -6.4776 H         1 ACP         0.4433
     47 HN62        1.3291    0.0869   -7.3963 H         1 ACP         0.4433
     48 H2          4.1215    2.2946   -4.4783 H         1 ACP         0.0459
@<TRIPOS>BOND
     1    1    2 2
     2    1    3 1
     3    1    4 1
     4    1    8 1
     5    3   32 1
     6    4   33 1
     7    5    6 2
     8    5    7 1
     9    5    8 1
    10    5   12 1
    11    8   34 1
    12    8   35 1
    13    9   10 2
    14    9   11 1
    15    9   12 1
    16    9   13 1
    17   11   36 1
    18   13   14 1
    19   14   15 1
    20   14   37 1
    21   14   38 1
    22   15   16 1
    23   15   17 1
    24   15   39 1
    25   16   21 1
    26   17   18 1
    27   17   19 1
    28   17   40 1
    29   18   41 1
    30   19   20 1
    31   19   21 1
    32   19   42 1
    33   20   43 1
    34   21   22 1
    35   21   44 1
    36   22   23 ar
    37   22   31 ar
    38   23   24 ar
    39   23   45 1
    40   24   25 ar
    41   25   26 ar
    42   25   31 ar
    43   26   27 1
    44   26   28 ar
    45   27   46 1
    46   27   47 1
    47   28   29 ar
    48   29   30 ar
    49   29   48 1
    50   30   31 ar
@<TRIPOS>SUBSTRUCTURE
     1 ACP         1 GROUP 0 A     ****
@<TRIPOS>MOLECULE
[[5-(6-aminopurin-9-yl)-3,4-dihydroxy-tetrahydrofuran-2-yl]methoxy-hydroxy-phosphoryl]oxy-(phosphonomethyl)phosphinate
   48    50     1     0     0
SMALL
USER_CHARGES

@<TRIPOS>ATOM
      1 PG          5.8606    1.8561   -4.7932 P.3       1 ACP         1.6292
      2 O1G         6.2490    3.1051   -5.5257 O.2       1 ACP        -0.8674
      3 O2G         4.5807    1.9919   -3.8168 O.3       1 ACP        -0.7977
      4 O3G         5.4939    0.5902   -5.7275 O.3       1 ACP        -0.7977
      5 PB          7.8432    2.1753   -2.2932 P.3       1 ACP         1.4910
      6 O1B         8.4548    3.4294   -2.8736 O.co2     1 ACP        -0.8292
      7 O2B         8.6345    1.2155   -1.4352 O.co2     1 ACP        -0.8292
      8 C3B         7.1462    1.2028   -3.7038 C.3       1 ACP        -0.6453
      9 PA          6.1389    3.5429   -0.3138 P.3       1 ACP         1.7996
     10 O1A         6.5226    4.9737   -0.5571 O.2       1 ACP        -0.8588
     11 O2A         6.9057    2.8480    0.9299 O.3       1 ACP        -0.8037
     12 O3A         6.4393    2.5464   -1.5517 O.3       1 ACP        -0.7988
     13 O5'         4.5673    3.2930   -0.0211 O.3       1 ACP        -0.5960
     14 C5'         4.0922    1.9801    0.2227 C.3       1 ACP         0.1917
     15 C4'         2.5944    2.0310    0.4653 C.3       1 ACP         0.0908
     16 O4'         1.9327    2.5740   -0.6889 O.3       1 ACP        -0.4111
     17 C3'         1.9685    0.6634    0.6767 C.3       1 ACP         0.0927
     18 O3'         2.1425    0.1975    1.9977 O.3       1 ACP        -0.6127
     19 C2'         0.5176    0.9128    0.3099 C.3       1 ACP         0.1095
     20 O2'        -0.2103    1.4454    1.4152 O.3       1 ACP        -0.5953
     21 C1'         0.6219    1.9765   -0.7844 C.3       1 ACP         0.4273
     22 N9          0.4237    1.4496   -2.1357 N.pl3     1 ACP        -0.6934
     23 C8          0.7352    0.1857   -2.5616 C.ar      1 ACP         0.5422
     24 N7          0.4386    0.0025   -3.8312 N.2       1 ACP        -0.5596
     25 C5         -0.0877    1.2002   -4.2458 C.ar      1 ACP        -0.2259
     26 C6         -0.5826    1.6331   -5.4719 C.ar      1 ACP         0.7526
     27 N6         -0.6027    0.7720   -6.5824 N.pl3     1 ACP        -0.9660
     28 N1         -1.0479    2.9006   -5.5841 N.ar      1 ACP        -0.8027
     29 C2         -1.0031    3.6836   -4.4792 C.ar      1 ACP         0.6758
     30 N3         -0.5493    3.3800   -3.2436 N.ar      1 ACP        -0.7221
     31 C4         -0.1057    2.1146   -3.2048 C.ar      1 ACP         0.5858
     32 HOG2        4.6135    2.6349   -3.0767 H         1 ACP         0.4705
     33 HOG3        4.7515    0.6682   -6.3639 H         1 ACP         0.4705
     34 H3B1        6.7568    0.2760   -3.2674 H         1 ACP         0.1189
     35 H3B2        8.0011    0.9253   -4.3309 H         1 ACP         0.1189
     36 HOA2        7.8845    2.7870    0.9092 H         1 ACP         0.4679
     37 H5'1        4.3175    1.3541   -0.6468 H         1 ACP         0.0587
     38 H5'2        4.6079    1.5730    1.0985 H         1 ACP         0.0587
     39 H4'         2.3752    2.7029    1.3156 H         1 ACP         0.0938
     40 H3'         2.4336   -0.1217   -0.0016 H         1 ACP         0.0597
     41 HO3'        1.7160   -0.6716    2.0397 H         1 ACP         0.4554
     42 H2'         0.0316    0.0155   -0.0339 H         1 ACP         0.0710
     43 HO2'       -0.1608    0.7921    2.1351 H         1 ACP         0.4360
     44 H1'        -0.1474    2.7798   -0.6651 H         1 ACP         0.1247
     45 H8          1.1731   -0.5535   -1.9047 H         1 ACP         0.0875
     46 HN61       -0.2130   -0.1479   -6.4999 H         1 ACP         0.4433
     47 HN62       -0.9195    1.1179   -7.4683 H         1 ACP         0.4433
     48 H2         -1.3833    4.6919   -4.6052 H         1 ACP         0.0459
@<TRIPOS>BOND
     1    1    2 2
     2    1    3 1
     3    1    4 1
     4    1    8 1
     5    3   32 1
     6    4   33 1
     7    5    6 2
     8    5    7 1
     9    5    8 1
    10    5   12 1
    11    8   34 1
    12    8   35 1
    13    9   10 2
    14    9   11 1
    15    9   12 1
    16    9   13 1
    17   11   36 1
    18   13   14 1
    19   14   15 1
    20   14   37 1
    21   14   38 1
    22   15   16 1
    23   15   17 1
    24   15   39 1
    25   16   21 1
    26   17   18 1
    27   17   19 1
    28   17   40 1
    29   18   41 1
    30   19   20 1
    31   19   21 1
    32   19   42 1
    33   20   43 1
    34   21   22 1
    35   21   44 1
    36   22   23 ar
    37   22   31 ar
    38   23   24 ar
    39   23   45 1
    40   24   25 ar
    41   25   26 ar
    42   25   31 ar
    43   26   27 1
    44   26   28 ar
    45   27   46 1
    46   27   47 1
    47   28   29 ar
    48   29   30 ar
    49   29   48 1
    50   30   31 ar
@<TRIPOS>SUBSTRUCTURE
     1 ACP         1 GROUP 0 A     ****
@<TRIPOS>MOLECULE
[[5-(6-aminopurin-9-yl)-3,4-dihydroxy-tetrahydrofuran-2-yl]methoxy-hydroxy-phosphoryl]oxy-(phosphonomethyl)phosphinate
   48    50     1     0     0
SMALL
USER_CHARGES

@<TRIPOS>ATOM
      1 PG          6.7042    5.3576   -1.0868 P.3       1 ACP         1.6292
      2 O1G         6.8010    4.0634   -1.8371 O.2       1 ACP        -0.8674
      3 O2G         7.4735    6.6098   -1.7577 O.3       1 ACP        -0.7977
      4 O3G         5.2052    5.9128   -0.8529 O.3       1 ACP        -0.7977
      5 PB          6.7407    4.1500    1.8836 P.3       1 ACP         1.4910
      6 O1B         5.2816    4.4838    2.0918 O.co2     1 ACP        -0.8292
      7 O2B         7.7376    4.1518    3.0192 O.co2     1 ACP        -0.8292
      8 C3B         7.3856    5.2999    0.5862 C.3       1 ACP        -0.6453
      9 PA          6.3383    1.2707    1.3934 P.3       1 ACP         1.7996
     10 O1A         6.8983    0.6915    2.6601 O.2       1 ACP        -0.8588
     11 O2A         6.6824    0.4202    0.0609 O.3       1 ACP        -0.8037
     12 O3A         6.8669    2.7585    1.0432 O.3       1 ACP        -0.7988
     13 O5'         4.7297    1.4430    1.3689 O.3       1 ACP        -0.5960
     14 C5'         4.0922    1.9801    0.2227 C.3       1 ACP         0.1917
     15 C4'         2.5944    2.0310    0.4653 C.3       1 ACP         0.0908
     16 O4'         1.9327    2.5740   -0.6889 O.3       1 ACP        -0.4111
     17 C3'         1.9685    0.6634    0.6767 C.3       1 ACP         0.0927
     18 O3'         2.1425    0.1975    1.9977 O.3       1 ACP        -0.6127
     19 C2'         0.5176    0.9128    0.3099 C.3       1 ACP         0.1095
     20 O2'        -0.2103    1.4454    1.4152 O.3       1 ACP        -0.5953
     21 C1'         0.6219    1.9765   -0.7844 C.3       1 ACP         0.4273
     22 N9          0.4237    1.4496   -2.1357 N.pl3     1 ACP        -0.6934
     23 C8         -0.5566    1.8304   -3.0133 C.ar      1 ACP         0.5422
     24 N7         -0.4788    1.1815   -4.1563 N.2       1 ACP        -0.5596
     25 C5          0.5985    0.3438   -4.0126 C.ar      1 ACP        -0.2259
     26 C6          1.1840   -0.5863   -4.8658 C.ar      1 ACP         0.7526
     27 N6          0.6656   -0.8050   -6.1536 N.pl3     1 ACP        -0.9660
     28 N1          2.2653   -1.2823   -4.4393 N.ar      1 ACP        -0.8027
     29 C2          2.7197   -1.0279   -3.1884 C.ar      1 ACP         0.6758
     30 N3          2.2404   -0.1568   -2.2739 N.ar      1 ACP        -0.7221
     31 C4          1.1743    0.4954   -2.7613 C.ar      1 ACP         0.5858
     32 HOG2        7.4436    7.4818   -1.3094 H         1 ACP         0.4705
     33 HOG3        4.6444    6.1105   -1.6330 H         1 ACP         0.4705
     34 H3B1        8.4542    5.0766    0.4901 H         1 ACP         0.1189
     35 H3B2        7.3073    6.3076    1.0098 H         1 ACP         0.1189
     36 HOA2        6.3789   -0.5107    0.0009 H         1 ACP         0.4679
     37 H5'1        4.4838    2.9857    0.0374 H         1 ACP         0.0587
     38 H5'2        4.3186    1.3449   -0.6398 H         1 ACP         0.0587
     39 H4'         2.3752    2.7029    1.3156 H         1 ACP         0.0938
     40 H3'         2.4336   -0.1217   -0.0016 H         1 ACP         0.0597
     41 HO3'        3.0987    0.1465    2.1461 H         1 ACP         0.4554
     42 H2'         0.0316    0.0155   -0.0339 H         1 ACP         0.0710
     43 HO2'       -0.1608    0.7921    2.1351 H         1 ACP         0.4360
     44 H1'        -0.1474    2.7798   -0.6651 H         1 ACP         0.1247
     45 H8         -1.2942    2.5813   -2.7649 H         1 ACP         0.0875
     46 HN61       -0.1624   -0.3184   -6.4408 H         1 ACP         0.4433
     47 HN62        1.0729   -1.5128   -6.7350 H         1 ACP         0.4433
     48 H2          3.5863   -1.6031   -2.8800 H         1 ACP         0.0459
@<TRIPOS>BOND
     1    1    2 2
     2    1    3 1
     3    1    4 1
     4    1    8 1
     5    3   32 1
     6    4   33 1
     7    5    6 2
     8    5    7 1
     9    5    8 1
    10    5   12 1
    11    8   34 1
    12    8   35 1
    13    9   10 2
    14    9   11 1
    15    9   12 1
    16    9   13 1
    17   11   36 1
    18   13   14 1
    19   14   15 1
    20   14   37 1
    21   14   38 1
    22   15   16 1
    23   15   17 1
    24   15   39 1
    25   16   21 1
    26   17   18 1
    27   17   19 1
    28   17   40 1
    29   18   41 1
    30   19   20 1
    31   19   21 1
    32   19   42 1
    33   20   43 1
    34   21   22 1
    35   21   44 1
    36   22   23 ar
    37   22   31 ar
    38   23   24 ar
    39   23   45 1
    40   24   25 ar
    41   25   26 ar
    42   25   31 ar
    43   26   27 1
    44   26   28 ar
    45   27   46 1
    46   27   47 1
    47   28   29 ar
    48   29   30 ar
    49   29   48 1
    50   30   31 ar
@<TRIPOS>SUBSTRUCTURE
     1 ACP         1 GROUP 0 A     ****
@<TRIPOS>MOLECULE
[[5-(6-aminopurin-9-yl)-3,4-dihydroxy-tetrahydrofuran-2-yl]methoxy-hydroxy-phosphoryl]oxy-(phosphonomethyl)phosphinate
   48    50     1     0     0
SMALL
USER_CHARGES

@<TRIPOS>ATOM
      1 PG          6.2617    0.8783   -4.0491 P.3       1 ACP         1.6292
      2 O1G         7.0452   -0.3778   -3.8131 O.2       1 ACP        -0.8674
      3 O2G         5.7153    1.0846   -5.5554 O.3       1 ACP        -0.7977
      4 O3G         4.9394    1.0521   -3.1374 O.3       1 ACP        -0.7977
      5 PB          7.9002    2.7991   -2.0721 P.3       1 ACP         1.4910
      6 O1B         8.5890    4.1387   -2.1936 O.co2     1 ACP        -0.8292
      7 O2B         8.6217    1.5631   -1.5872 O.co2     1 ACP        -0.8292
      8 C3B         7.1827    2.4002   -3.7296 C.3       1 ACP        -0.6453
      9 PA          6.2292    3.5136    0.2496 P.3       1 ACP         1.7996
     10 O1A         6.6927    4.9186    0.5045 O.2       1 ACP        -0.8588
     11 O2A         6.9320    2.3979    1.1869 O.3       1 ACP        -0.8037
     12 O3A         6.5026    2.9775   -1.2516 O.3       1 ACP        -0.7988
     13 O5'         4.6408    3.2691    0.4376 O.3       1 ACP        -0.5960
     14 C5'         4.0922    1.9801    0.2227 C.3       1 ACP         0.1917
     15 C4'         2.5944    2.0310    0.4653 C.3       1 ACP         0.0908
     16 O4'         1.9327    2.5740   -0.6889 O.3       1 ACP        -0.4111
     17 C3'         1.9685    0.6634    0.6767 C.3       1 ACP         0.0927
     18 O3'         2.1425    0.1975    1.9977 O.3       1 ACP        -0.6127
     19 C2'         0.5176    0.9128    0.3099 C.3       1 ACP         0.1095
     20 O2'        -0.2103    1.4454    1.4152 O.3       1 ACP        -0.5953
     21 C1'         0.6219    1.9765   -0.7844 C.3       1 ACP         0.4273
     22 N9          0.4237    1.4496   -2.1357 N.pl3     1 ACP        -0.6934
     23 C8          1.3280    1.5049   -3.1629 C.ar      1 ACP         0.5422
     24 N7          0.8669    0.9430   -4.2608 N.2       1 ACP        -0.5596
     25 C5         -0.3909    0.5052   -3.9303 C.ar      1 ACP        -0.2259
     26 C6         -1.3732   -0.1610   -4.6563 C.ar      1 ACP         0.7526
     27 N6         -1.1592   -0.5106   -6.0006 N.pl3     1 ACP        -0.9660
     28 N1         -2.5443   -0.4711   -4.0498 N.ar      1 ACP        -0.8027
     29 C2         -2.6923   -0.1087   -2.7527 C.ar      1 ACP         0.6758
     30 N3         -1.8193    0.5362   -1.9484 N.ar      1 ACP        -0.7221
     31 C4         -0.6860    0.8110   -2.6113 C.ar      1 ACP         0.5858
     32 HOG2        5.1071    0.4158   -5.9363 H         1 ACP         0.4705
     33 HOG3        4.3874    1.8553   -3.2487 H         1 ACP         0.4705
     34 H3B1        8.0218    2.4215   -4.4341 H         1 ACP         0.1189
     35 H3B2        6.5294    3.2418   -3.9865 H         1 ACP         0.1189
     36 HOA2        6.8297    2.4637    2.1603 H         1 ACP         0.4679
     37 H5'1        4.3024    1.6721   -0.8067 H         1 ACP         0.0587
     38 H5'2        4.5673    1.2730    0.9105 H         1 ACP         0.0587
     39 H4'         2.3752    2.7029    1.3156 H         1 ACP         0.0938
     40 H3'         2.4336   -0.1217   -0.0016 H         1 ACP         0.0597
     41 HO3'        1.7160   -0.6716    2.0397 H         1 ACP         0.4554
     42 H2'         0.0316    0.0155   -0.0339 H         1 ACP         0.0710
     43 HO2'       -1.1270    1.5823    1.1180 H         1 ACP         0.4360
     44 H1'        -0.1474    2.7798   -0.6651 H         1 ACP         0.1247
     45 H8          2.3008    1.9640   -3.0518 H         1 ACP         0.0875
     46 HN61       -0.3077   -0.2348   -6.4521 H         1 ACP         0.4433
     47 HN62       -1.8970   -0.9480   -6.5194 H         1 ACP         0.4433
     48 H2         -3.6419   -0.3724   -2.2992 H         1 ACP         0.0459
@<TRIPOS>BOND
     1    1    2 2
     2    1    3 1
     3    1    4 1
     4    1    8 1
     5    3   32 1
     6    4   33 1
     7    5    6 2
     8    5    7 1
     9    5    8 1
    10    5   12 1
    11    8   34 1
    12    8   35 1
    13    9   10 2
    14    9   11 1
    15    9   12 1
    16    9   13 1
    17   11   36 1
    18   13   14 1
    19   14   15 1
    20   14   37 1
    21   14   38 1
    22   15   16 1
    23   15   17 1
    24   15   39 1
    25   16   21 1
    26   17   18 1
    27   17   19 1
    28   17   40 1
    29   18   41 1
    30   19   20 1
    31   19   21 1
    32   19   42 1
    33   20   43 1
    34   21   22 1
    35   21   44 1
    36   22   23 ar
    37   22   31 ar
    38   23   24 ar
    39   23   45 1
    40   24   25 ar
    41   25   26 ar
    42   25   31 ar
    43   26   27 1
    44   26   28 ar
    45   27   46 1
    46   27   47 1
    47   28   29 ar
    48   29   30 ar
    49   29   48 1
    50   30   31 ar
@<TRIPOS>SUBSTRUCTURE
     1 ACP         1 GROUP 0 A     ****
@<TRIPOS>MOLECULE
[[5-(6-aminopurin-9-yl)-3,4-dihydroxy-tetrahydrofuran-2-yl]methoxy-hydroxy-phosphoryl]oxy-(phosphonomethyl)phosphinate
   48    50     1     0     0
SMALL
USER_CHARGES

@<TRIPOS>ATOM
      1 PG         -4.2244    3.6507   -4.3931 P.3       1 ACP         1.6292
      2 O1G        -4.4712    3.5956   -2.9155 O.2       1 ACP        -0.8674
      3 O2G        -3.6089    2.3073   -5.0461 O.3       1 ACP        -0.7977
      4 O3G        -5.5248    3.9545   -5.3022 O.3       1 ACP        -0.7977
      5 PB         -1.3090    4.9831   -4.3047 P.3       1 ACP         1.4910
      6 O1B        -1.3560    5.1076   -2.7995 O.co2     1 ACP        -0.8292
      7 O2B        -0.5661    5.9725   -5.1723 O.co2     1 ACP        -0.8292
      8 C3B        -3.0579    4.9329   -4.9047 C.3       1 ACP        -0.6453
      9 PA          0.4591    2.6246   -4.3707 P.3       1 ACP         1.7996
     10 O1A         1.7294    3.2429   -4.8782 O.2       1 ACP        -0.8588
     11 O2A         0.1490    1.1522   -4.9650 O.3       1 ACP        -0.8037
     12 O3A        -0.8805    3.4638   -4.7128 O.3       1 ACP        -0.7988
     13 O5'         0.3749    2.4474   -2.7646 O.3       1 ACP        -0.5960
     14 C5'        -0.7794    1.8744   -2.1748 C.3       1 ACP         0.1917
     15 C4'        -0.9699    2.4597   -0.7819 C.3       1 ACP         0.0908
     16 O4'        -2.1475    1.8640   -0.2014 O.3       1 ACP        -0.4111
     17 C3'         0.1697    2.1347    0.1695 C.3       1 ACP         0.0927
     18 O3'         0.1809    3.0982    1.2223 O.3       1 ACP        -0.6127
     19 C2'        -0.2543    0.7880    0.7187 C.3       1 ACP         0.1095
     20 O2'         0.3606    0.4944    1.9582 O.3       1 ACP        -0.5953
     21 C1'        -1.7682    0.9516    0.8548 C.3       1 ACP         0.4273
     22 N9         -2.5926   -0.2553    0.7436 N.pl3     1 ACP        -0.6934
     23 C8         -2.1324   -1.5302    0.5457 C.ar      1 ACP         0.5422
     24 N7         -3.1118   -2.4085    0.4915 N.2       1 ACP        -0.5596
     25 C5         -4.2561   -1.6704    0.6612 C.ar      1 ACP        -0.2259
     26 C6         -5.6018   -2.0215    0.6998 C.ar      1 ACP         0.7526
     27 N6         -5.9988   -3.3610    0.5479 N.pl3     1 ACP        -0.9660
     28 N1         -6.5303   -1.0528    0.8871 N.ar      1 ACP        -0.8027
     29 C2         -6.0872    0.2199    1.0276 C.ar      1 ACP         0.6758
     30 N3         -4.8179    0.6820    1.0081 N.ar      1 ACP        -0.7221
     31 C4         -3.9544   -0.3272    0.8198 C.ar      1 ACP         0.5858
     32 HOG2       -2.7410    1.9787   -4.7282 H         1 ACP         0.4705
     33 HOG3       -6.2852    3.3358   -5.2661 H         1 ACP         0.4705
     34 H3B1       -3.0002    4.8966   -5.9985 H         1 ACP         0.1189
     35 H3B2       -3.4958    5.9023   -4.6407 H         1 ACP         0.1189
     36 HOA2        0.0449    1.0444   -5.9344 H         1 ACP         0.4679
     37 H5'1       -1.6471    2.0964   -2.8045 H         1 ACP         0.0587
     38 H5'2       -0.6478    0.7889   -2.1188 H         1 ACP         0.0587
     39 H4'        -1.1469    3.5409   -0.8523 H         1 ACP         0.0938
     40 H3'         1.1601    2.1310   -0.2934 H         1 ACP         0.0597
     41 HO3'        0.3098    3.9616    0.8017 H         1 ACP         0.4554
     42 H2'        -0.0024   -0.0091    0.0062 H         1 ACP         0.0710
     43 HO2'        1.3225    0.4909    1.8095 H         1 ACP         0.4360
     44 H1'        -2.0584    1.4255    1.8301 H         1 ACP         0.1247
     45 H8         -1.0791   -1.7555    0.4498 H         1 ACP         0.0875
     46 HN61       -5.3067   -4.0623    0.3633 H         1 ACP         0.4433
     47 HN62       -6.9754   -3.5867    0.5317 H         1 ACP         0.4433
     48 H2         -6.8575    0.9694    1.1755 H         1 ACP         0.0459
@<TRIPOS>BOND
     1    1    2 2
     2    1    3 1
     3    1    4 1
     4    1    8 1
     5    3   32 1
     6    4   33 1
     7    5    6 2
     8    5    7 1
     9    5    8 1
    10    5   12 1
    11    8   34 1
    12    8   35 1
    13    9   10 2
    14    9   11 1
    15    9   12 1
    16    9   13 1
    17   11   36 1
    18   13   14 1
    19   14   15 1
    20   14   37 1
    21   14   38 1
    22   15   16 1
    23   15   17 1
    24   15   39 1
    25   16   21 1
    26   17   18 1
    27   17   19 1
    28   17   40 1
    29   18   41 1
    30   19   20 1
    31   19   21 1
    32   19   42 1
    33   20   43 1
    34   21   22 1
    35   21   44 1
    36   22   23 ar
    37   22   31 ar
    38   23   24 ar
    39   23   45 1
    40   24   25 ar
    41   25   26 ar
    42   25   31 ar
    43   26   27 1
    44   26   28 ar
    45   27   46 1
    46   27   47 1
    47   28   29 ar
    48   29   30 ar
    49   29   48 1
    50   30   31 ar
@<TRIPOS>SUBSTRUCTURE
     1 ACP         1 GROUP 0 A     ****
@<TRIPOS>MOLECULE
[[5-(6-aminopurin-9-yl)-3,4-dihydroxy-tetrahydrofuran-2-yl]methoxy-hydroxy-phosphoryl]oxy-(phosphonomethyl)phosphinate
   48    50     1     0     0
SMALL
USER_CHARGES

@<TRIPOS>ATOM
      1 PG         -4.2510    4.4150   -4.5542 P.3       1 ACP         1.6292
      2 O1G        -3.8721    3.7394   -3.2707 O.2       1 ACP        -0.8674
      3 O2G        -5.0601    3.4984   -5.6103 O.3       1 ACP        -0.7977
      4 O3G        -5.1804    5.7272   -4.3988 O.3       1 ACP        -0.7977
      5 PB         -1.5177    3.8979   -6.1494 P.3       1 ACP         1.4910
      6 O1B        -0.5281    4.7568   -6.9021 O.co2     1 ACP        -0.8292
      7 O2B        -2.1991    2.7083   -6.7850 O.co2     1 ACP        -0.8292
      8 C3B        -2.8472    5.0189   -5.5191 C.3       1 ACP        -0.6453
      9 PA          0.4591    2.6246   -4.3707 P.3       1 ACP         1.7996
     10 O1A         1.7294    3.2429   -4.8782 O.2       1 ACP        -0.8588
     11 O2A         0.1490    1.1522   -4.9650 O.3       1 ACP        -0.8037
     12 O3A        -0.8805    3.4638   -4.7128 O.3       1 ACP        -0.7988
     13 O5'         0.3749    2.4474   -2.7646 O.3       1 ACP        -0.5960
     14 C5'        -0.7794    1.8744   -2.1748 C.3       1 ACP         0.1917
     15 C4'        -0.9699    2.4597   -0.7819 C.3       1 ACP         0.0908
     16 O4'        -2.1475    1.8640   -0.2014 O.3       1 ACP        -0.4111
     17 C3'         0.1697    2.1347    0.1695 C.3       1 ACP         0.0927
     18 O3'         0.1809    3.0982    1.2223 O.3       1 ACP        -0.6127
     19 C2'        -0.2543    0.7880    0.7187 C.3       1 ACP         0.1095
     20 O2'         0.3606    0.4944    1.9582 O.3       1 ACP        -0.5953
     21 C1'        -1.7682    0.9516    0.8548 C.3       1 ACP         0.4273
     22 N9         -2.5926   -0.2553    0.7436 N.pl3     1 ACP        -0.6934
     23 C8         -2.1324   -1.5302    0.5457 C.ar      1 ACP         0.5422
     24 N7         -3.1118   -2.4085    0.4915 N.2       1 ACP        -0.5596
     25 C5         -4.2561   -1.6704    0.6612 C.ar      1 ACP        -0.2259
     26 C6         -5.6018   -2.0215    0.6998 C.ar      1 ACP         0.7526
     27 N6         -5.9988   -3.3610    0.5479 N.pl3     1 ACP        -0.9660
     28 N1         -6.5303   -1.0528    0.8871 N.ar      1 ACP        -0.8027
     29 C2         -6.0872    0.2199    1.0276 C.ar      1 ACP         0.6758
     30 N3         -4.8179    0.6820    1.0081 N.ar      1 ACP        -0.7221
     31 C4         -3.9544   -0.3272    0.8198 C.ar      1 ACP         0.5858
     32 HOG2       -4.6382    2.6814   -5.9517 H         1 ACP         0.4705
     33 HOG3       -6.0589    5.6396   -3.9711 H         1 ACP         0.4705
     34 H3B1       -3.2573    5.5251   -6.4003 H         1 ACP         0.1189
     35 H3B2       -2.3390    5.7833   -4.9202 H         1 ACP         0.1189
     36 HOA2        0.0449    1.0444   -5.9344 H         1 ACP         0.4679
     37 H5'1       -1.6471    2.0964   -2.8045 H         1 ACP         0.0587
     38 H5'2       -0.6478    0.7889   -2.1188 H         1 ACP         0.0587
     39 H4'        -1.1469    3.5409   -0.8523 H         1 ACP         0.0938
     40 H3'         1.1601    2.1310   -0.2934 H         1 ACP         0.0597
     41 HO3'        0.3098    3.9616    0.8017 H         1 ACP         0.4554
     42 H2'        -0.0024   -0.0091    0.0062 H         1 ACP         0.0710
     43 HO2'        1.3225    0.4909    1.8095 H         1 ACP         0.4360
     44 H1'        -2.0584    1.4255    1.8301 H         1 ACP         0.1247
     45 H8         -1.0791   -1.7555    0.4498 H         1 ACP         0.0875
     46 HN61       -5.3067   -4.0623    0.3633 H         1 ACP         0.4433
     47 HN62       -6.9754   -3.5867    0.5317 H         1 ACP         0.4433
     48 H2         -6.8575    0.9694    1.1755 H         1 ACP         0.0459
@<TRIPOS>BOND
     1    1    2 2
     2    1    3 1
     3    1    4 1
     4    1    8 1
     5    3   32 1
     6    4   33 1
     7    5    6 2
     8    5    7 1
     9    5    8 1
    10    5   12 1
    11    8   34 1
    12    8   35 1
    13    9   10 2
    14    9   11 1
    15    9   12 1
    16    9   13 1
    17   11   36 1
    18   13   14 1
    19   14   15 1
    20   14   37 1
    21   14   38 1
    22   15   16 1
    23   15   17 1
    24   15   39 1
    25   16   21 1
    26   17   18 1
    27   17   19 1
    28   17   40 1
    29   18   41 1
    30   19   20 1
    31   19   21 1
    32   19   42 1
    33   20   43 1
    34   21   22 1
    35   21   44 1
    36   22   23 ar
    37   22   31 ar
    38   23   24 ar
    39   23   45 1
    40   24   25 ar
    41   25   26 ar
    42   25   31 ar
    43   26   27 1
    44   26   28 ar
    45   27   46 1
    46   27   47 1
    47   28   29 ar
    48   29   30 ar
    49   29   48 1
    50   30   31 ar
@<TRIPOS>SUBSTRUCTURE
     1 ACP         1 GROUP 0 A     ****
@<TRIPOS>MOLECULE
[[5-(6-aminopurin-9-yl)-3,4-dihydroxy-tetrahydrofuran-2-yl]methoxy-hydroxy-phosphoryl]oxy-(phosphonomethyl)phosphinate
   48    50     1     0     0
SMALL
USER_CHARGES

@<TRIPOS>ATOM
      1 PG         -2.9119    7.5099   -0.8128 P.3       1 ACP         1.6292
      2 O1G        -3.1476    7.8424   -2.2554 O.2       1 ACP        -0.8674
      3 O2G        -2.7792    8.7772    0.1804 O.3       1 ACP        -0.7977
      4 O3G        -4.0495    6.5982   -0.1166 O.3       1 ACP        -0.7977
      5 PB         -1.0759    4.9176   -1.2512 P.3       1 ACP         1.4910
      6 O1B         0.2805    4.4610   -0.7660 O.co2     1 ACP        -0.8292
      7 O2B        -1.4150    5.0160   -2.7204 O.co2     1 ACP        -0.8292
      8 C3B        -1.3940    6.5790   -0.5028 C.3       1 ACP        -0.6453
      9 PA         -2.5393    2.4968   -0.4201 P.3       1 ACP         1.7996
     10 O1A        -2.8231    1.8710   -1.7548 O.2       1 ACP        -0.8588
     11 O2A        -3.7479    2.3698    0.6478 O.3       1 ACP        -0.8037
     12 O3A        -2.2418    4.0857   -0.4722 O.3       1 ACP        -0.7988
     13 O5'        -1.2435    1.9111    0.3519 O.3       1 ACP        -0.5960
     14 C5'        -0.8811    2.4285    1.6206 C.3       1 ACP         0.1917
     15 C4'        -0.1994    1.3333    2.4288 C.3       1 ACP         0.0908
     16 O4'        -1.1285    0.2356    2.5840 O.3       1 ACP        -0.4111
     17 C3'         1.0324    0.7610    1.7344 C.3       1 ACP         0.0927
     18 O3'         1.9175    0.2377    2.7247 O.3       1 ACP        -0.6127
     19 C2'         0.4468   -0.3802    0.9263 C.3       1 ACP         0.1095
     20 O2'         1.3993   -1.3703    0.5961 O.3       1 ACP        -0.5953
     21 C1'        -0.6159   -0.9100    1.8769 C.3       1 ACP         0.4273
     22 N9         -1.7127   -1.6108    1.2130 N.pl3     1 ACP        -0.6934
     23 C8         -1.6230   -2.3308    0.0513 C.ar      1 ACP         0.5422
     24 N7         -2.7800   -2.8517   -0.3004 N.2       1 ACP        -0.5596
     25 C5         -3.6574   -2.4511    0.6758 C.ar      1 ACP        -0.2259
     26 C6         -5.0170   -2.6775    0.8654 C.ar      1 ACP         0.7526
     27 N6         -5.7504   -3.4510   -0.0504 N.pl3     1 ACP        -0.9660
     28 N1         -5.6292   -2.1415    1.9486 N.ar      1 ACP        -0.8027
     29 C2         -4.8703   -1.4055    2.7961 C.ar      1 ACP         0.6758
     30 N3         -3.5527   -1.1170    2.7199 N.ar      1 ACP        -0.7221
     31 C4         -3.0124   -1.6774    1.6275 C.ar      1 ACP         0.5858
     32 HOG2       -3.5318    9.4016    0.2576 H         1 ACP         0.4705
     33 HOG3       -3.9477    6.3493    0.8267 H         1 ACP         0.4705
     34 H3B1       -0.5580    7.2151   -0.8148 H         1 ACP         0.1189
     35 H3B2       -1.3047    6.4441    0.5812 H         1 ACP         0.1189
     36 HOA2       -4.0551    1.4766    0.9123 H         1 ACP         0.4679
     37 H5'1       -0.2031    3.2762    1.4777 H         1 ACP         0.0587
     38 H5'2       -1.7839    2.7764    2.1331 H         1 ACP         0.0587
     39 H4'         0.0402    1.7079    3.4342 H         1 ACP         0.0938
     40 H3'         1.5907    1.4859    1.1353 H         1 ACP         0.0597
     41 HO3'        2.6839   -0.1150    2.2479 H         1 ACP         0.4554
     42 H2'        -0.0017    0.0018    0.0005 H         1 ACP         0.0710
     43 HO2'        2.0953   -0.9375    0.0709 H         1 ACP         0.4360
     44 H1'        -0.1998   -1.6319    2.6178 H         1 ACP         0.1247
     45 H8         -0.6932   -2.4401   -0.4900 H         1 ACP         0.0875
     46 HN61       -5.2972   -3.8032   -0.8723 H         1 ACP         0.4433
     47 HN62       -6.7381   -3.5629    0.0791 H         1 ACP         0.4433
     48 H2         -5.3929   -0.9917    3.6520 H         1 ACP         0.0459
@<TRIPOS>BOND
     1    1    2 2
     2    1    3 1
     3    1    4 1
     4    1    8 1
     5    3   32 1
     6    4   33 1
     7    5    6 2
     8    5    7 1
     9    5    8 1
    10    5   12 1
    11    8   34 1
    12    8   35 1
    13    9   10 2
    14    9   11 1
    15    9   12 1
    16    9   13 1
    17   11   36 1
    18   13   14 1
    19   14   15 1
    20   14   37 1
    21   14   38 1
    22   15   16 1
    23   15   17 1
    24   15   39 1
    25   16   21 1
    26   17   18 1
    27   17   19 1
    28   17   40 1
    29   18   41 1
    30   19   20 1
    31   19   21 1
    32   19   42 1
    33   20   43 1
    34   21   22 1
    35   21   44 1
    36   22   23 ar
    37   22   31 ar
    38   23   24 ar
    39   23   45 1
    40   24   25 ar
    41   25   26 ar
    42   25   31 ar
    43   26   27 1
    44   26   28 ar
    45   27   46 1
    46   27   47 1
    47   28   29 ar
    48   29   30 ar
    49   29   48 1
    50   30   31 ar
@<TRIPOS>SUBSTRUCTURE
     1 ACP         1 GROUP 0 A     ****
@<TRIPOS>MOLECULE
[[5-(6-aminopurin-9-yl)-3,4-dihydroxy-tetrahydrofuran-2-yl]methoxy-hydroxy-phosphoryl]oxy-(phosphonomethyl)phosphinate
   48    50     1     0     0
SMALL
USER_CHARGES

@<TRIPOS>ATOM
      1 PG          7.4346    0.1689    3.3398 P.3       1 ACP         1.6292
      2 O1G         8.3230    1.3152    3.7192 O.2       1 ACP        -0.8674
      3 O2G         7.2678   -0.9825    4.4608 O.3       1 ACP        -0.7977
      4 O3G         5.9124    0.5642    2.9707 O.3       1 ACP        -0.7977
      5 PB          8.1785    0.0463    0.2230 P.3       1 ACP         1.4910
      6 O1B         8.6503   -1.0248   -0.7329 O.co2     1 ACP        -0.8292
      7 O2B         8.9406    1.3348    0.4291 O.co2     1 ACP        -0.8292
      8 C3B         7.9850   -0.7475    1.8824 C.3       1 ACP        -0.6453
      9 PA          5.8746    0.9206   -1.3958 P.3       1 ACP         1.7996
     10 O1A         6.0243    0.0318   -2.5963 O.2       1 ACP        -0.8588
     11 O2A         6.4832    2.4075   -1.5854 O.3       1 ACP        -0.8037
     12 O3A         6.6072    0.3762   -0.0606 O.3       1 ACP        -0.7988
     13 O5'         4.3521    1.1579   -0.9020 O.3       1 ACP        -0.5960
     14 C5'         4.0922    1.9801    0.2227 C.3       1 ACP         0.1917
     15 C4'         2.5944    2.0310    0.4653 C.3       1 ACP         0.0908
     16 O4'         1.9327    2.5740   -0.6889 O.3       1 ACP        -0.4111
     17 C3'         1.9685    0.6634    0.6767 C.3       1 ACP         0.0927
     18 O3'         2.1425    0.1975    1.9977 O.3       1 ACP        -0.6127
     19 C2'         0.5176    0.9128    0.3099 C.3       1 ACP         0.1095
     20 O2'        -0.2103    1.4454    1.4152 O.3       1 ACP        -0.5953
     21 C1'         0.6219    1.9765   -0.7844 C.3       1 ACP         0.4273
     22 N9          0.4237    1.4496   -2.1357 N.pl3     1 ACP        -0.6934
     23 C8         -0.6990    0.8143   -2.5962 C.ar      1 ACP         0.5422
     24 N7         -0.5842    0.4561   -3.8580 N.2       1 ACP        -0.5596
     25 C5          0.6674    0.8775   -4.2308 C.ar      1 ACP        -0.2259
     26 C6          1.3671    0.7929   -5.4304 C.ar      1 ACP         0.7526
     27 N6          0.7907    0.1795   -6.5558 N.pl3     1 ACP        -0.9660
     28 N1          2.6167    1.3114   -5.5022 N.ar      1 ACP        -0.8027
     29 C2          3.1190    1.8905   -4.3849 C.ar      1 ACP         0.6758
     30 N3          2.5420    2.0322   -3.1717 N.ar      1 ACP        -0.7221
     31 C4          1.3113    1.4986   -3.1725 C.ar      1 ACP         0.5858
     32 HOG2        6.8939   -0.7436    5.3356 H         1 ACP         0.4705
     33 HOG3        5.2856   -0.1456    2.7148 H         1 ACP         0.4705
     34 H3B1        8.9622   -1.1800    2.1253 H         1 ACP         0.1189
     35 H3B2        7.2928   -1.5848    1.7378 H         1 ACP         0.1189
     36 HOA2        7.4386    2.5070   -1.7841 H         1 ACP         0.4679
     37 H5'1        4.6066    1.5623    1.0942 H         1 ACP         0.0587
     38 H5'2        4.4821    2.9842    0.0261 H         1 ACP         0.0587
     39 H4'         2.3752    2.7029    1.3156 H         1 ACP         0.0938
     40 H3'         2.4336   -0.1217   -0.0016 H         1 ACP         0.0597
     41 HO3'        1.7160   -0.6716    2.0397 H         1 ACP         0.4554
     42 H2'         0.0316    0.0155   -0.0339 H         1 ACP         0.0710
     43 HO2'       -0.1608    0.7921    2.1351 H         1 ACP         0.4360
     44 H1'        -0.1474    2.7798   -0.6651 H         1 ACP         0.1247
     45 H8         -1.5636    0.6429   -1.9696 H         1 ACP         0.0875
     46 HN61       -0.1155   -0.2418   -6.4776 H         1 ACP         0.4433
     47 HN62        1.3291    0.0869   -7.3963 H         1 ACP         0.4433
     48 H2          4.1215    2.2946   -4.4783 H         1 ACP         0.0459
@<TRIPOS>BOND
     1    1    2 2
     2    1    3 1
     3    1    4 1
     4    1    8 1
     5    3   32 1
     6    4   33 1
     7    5    6 2
     8    5    7 1
     9    5    8 1
    10    5   12 1
    11    8   34 1
    12    8   35 1
    13    9   10 2
    14    9   11 1
    15    9   12 1
    16    9   13 1
    17   11   36 1
    18   13   14 1
    19   14   15 1
    20   14   37 1
    21   14   38 1
    22   15   16 1
    23   15   17 1
    24   15   39 1
    25   16   21 1
    26   17   18 1
    27   17   19 1
    28   17   40 1
    29   18   41 1
    30   19   20 1
    31   19   21 1
    32   19   42 1
    33   20   43 1
    34   21   22 1
    35   21   44 1
    36   22   23 ar
    37   22   31 ar
    38   23   24 ar
    39   23   45 1
    40   24   25 ar
    41   25   26 ar
    42   25   31 ar
    43   26   27 1
    44   26   28 ar
    45   27   46 1
    46   27   47 1
    47   28   29 ar
    48   29   30 ar
    49   29   48 1
    50   30   31 ar
@<TRIPOS>SUBSTRUCTURE
     1 ACP         1 GROUP 0 A     ****
@<TRIPOS>MOLECULE
[[5-(6-aminopurin-9-yl)-3,4-dihydroxy-tetrahydrofuran-2-yl]methoxy-hydroxy-phosphoryl]oxy-(phosphonomethyl)phosphinate
   48    50     1     0     0
SMALL
USER_CHARGES

@<TRIPOS>ATOM
      1 PG         -2.0333   -2.8030   -5.6984 P.3       1 ACP         1.6292
      2 O1G        -0.9877   -2.0578   -6.4723 O.2       1 ACP        -0.8674
      3 O2G        -3.4429   -3.0143   -6.4590 O.3       1 ACP        -0.7977
      4 O3G        -1.6220   -4.2956   -5.2372 O.3       1 ACP        -0.7977
      5 PB         -3.2427   -0.3133   -4.0793 P.3       1 ACP         1.4910
      6 O1B        -3.5115    0.0013   -2.6259 O.co2     1 ACP        -0.8292
      7 O2B        -4.3256   -0.2490   -5.1312 O.co2     1 ACP        -0.8292
      8 C3B        -2.5139   -2.0120   -4.1460 C.3       1 ACP        -0.6453
      9 PA         -1.6646    2.1132   -4.6402 P.3       1 ACP         1.7996
     10 O1A        -2.6285    2.8802   -5.4982 O.2       1 ACP        -0.8588
     11 O2A        -0.1202    2.2215   -5.1097 O.3       1 ACP        -0.8037
     12 O3A        -1.9353    0.5196   -4.5844 O.3       1 ACP        -0.7988
     13 O5'        -1.6512    2.5329   -3.0776 O.3       1 ACP        -0.5960
     14 C5'        -0.7794    1.8744   -2.1748 C.3       1 ACP         0.1917
     15 C4'        -0.9699    2.4597   -0.7819 C.3       1 ACP         0.0908
     16 O4'        -2.1475    1.8640   -0.2014 O.3       1 ACP        -0.4111
     17 C3'         0.1697    2.1347    0.1695 C.3       1 ACP         0.0927
     18 O3'         0.1809    3.0982    1.2223 O.3       1 ACP        -0.6127
     19 C2'        -0.2543    0.7880    0.7187 C.3       1 ACP         0.1095
     20 O2'         0.3606    0.4944    1.9582 O.3       1 ACP        -0.5953
     21 C1'        -1.7682    0.9516    0.8548 C.3       1 ACP         0.4273
     22 N9         -2.5926   -0.2553    0.7436 N.pl3     1 ACP        -0.6934
     23 C8         -3.8700   -0.3163    0.2529 C.ar      1 ACP         0.5422
     24 N7         -4.3522   -1.5414    0.2751 N.2       1 ACP        -0.5596
     25 C5         -3.3434   -2.3070    0.8036 C.ar      1 ACP        -0.2259
     26 C6         -3.2433   -3.6673    1.0777 C.ar      1 ACP         0.7526
     27 N6         -4.3152   -4.5349    0.8066 N.pl3     1 ACP        -0.9660
     28 N1         -2.0949   -4.1491    1.6112 N.ar      1 ACP        -0.8027
     29 C2         -1.0966   -3.2647    1.8500 C.ar      1 ACP         0.6758
     30 N3         -1.0746   -1.9321    1.6291 N.ar      1 ACP        -0.7221
     31 C4         -2.2390   -1.5249    1.1020 C.ar      1 ACP         0.5858
     32 HOG2       -3.9529   -2.2259   -6.7426 H         1 ACP         0.4705
     33 HOG3       -1.3935   -4.9590   -5.9228 H         1 ACP         0.4705
     34 H3B1       -3.2428   -2.6717   -3.6618 H         1 ACP         0.1189
     35 H3B2       -1.6287   -1.9865   -3.5003 H         1 ACP         0.1189
     36 HOA2        0.1258    1.9096   -6.0065 H         1 ACP         0.4679
     37 H5'1       -1.0110    0.8043   -2.1746 H         1 ACP         0.0587
     38 H5'2        0.2528    2.0159   -2.5111 H         1 ACP         0.0587
     39 H4'        -1.1469    3.5409   -0.8523 H         1 ACP         0.0938
     40 H3'         1.1601    2.1310   -0.2934 H         1 ACP         0.0597
     41 HO3'        0.3098    3.9616    0.8017 H         1 ACP         0.4554
     42 H2'        -0.0024   -0.0091    0.0062 H         1 ACP         0.0710
     43 HO2'        1.3225    0.4909    1.8095 H         1 ACP         0.4360
     44 H1'        -2.0584    1.4255    1.8301 H         1 ACP         0.1247
     45 H8         -4.3937    0.5597   -0.1045 H         1 ACP         0.0875
     46 HN61       -5.1761   -4.1600    0.4557 H         1 ACP         0.4433
     47 HN62       -4.2402   -5.5032    1.0550 H         1 ACP         0.4433
     48 H2         -0.1923   -3.6849    2.2775 H         1 ACP         0.0459
@<TRIPOS>BOND
     1    1    2 2
     2    1    3 1
     3    1    4 1
     4    1    8 1
     5    3   32 1
     6    4   33 1
     7    5    6 2
     8    5    7 1
     9    5    8 1
    10    5   12 1
    11    8   34 1
    12    8   35 1
    13    9   10 2
    14    9   11 1
    15    9   12 1
    16    9   13 1
    17   11   36 1
    18   13   14 1
    19   14   15 1
    20   14   37 1
    21   14   38 1
    22   15   16 1
    23   15   17 1
    24   15   39 1
    25   16   21 1
    26   17   18 1
    27   17   19 1
    28   17   40 1
    29   18   41 1
    30   19   20 1
    31   19   21 1
    32   19   42 1
    33   20   43 1
    34   21   22 1
    35   21   44 1
    36   22   23 ar
    37   22   31 ar
    38   23   24 ar
    39   23   45 1
    40   24   25 ar
    41   25   26 ar
    42   25   31 ar
    43   26   27 1
    44   26   28 ar
    45   27   46 1
    46   27   47 1
    47   28   29 ar
    48   29   30 ar
    49   29   48 1
    50   30   31 ar
@<TRIPOS>SUBSTRUCTURE
     1 ACP         1 GROUP 0 A     ****
@<TRIPOS>MOLECULE
[[5-(6-aminopurin-9-yl)-3,4-dihydroxy-tetrahydrofuran-2-yl]methoxy-hydroxy-phosphoryl]oxy-(phosphonomethyl)phosphinate
   48    50     1     0     0
SMALL
USER_CHARGES

@<TRIPOS>ATOM
      1 PG          8.3317    1.8071   -4.0038 P.3       1 ACP         1.6292
      2 O1G         9.0845    1.4926   -2.7462 O.2       1 ACP        -0.8674
      3 O2G         8.8520    3.0999   -4.8211 O.3       1 ACP        -0.7977
      4 O3G         8.3178    0.6345   -5.1150 O.3       1 ACP        -0.7977
      5 PB          5.9795    3.5445   -2.6880 P.3       1 ACP         1.4910
      6 O1B         4.4689    3.5175   -2.7220 O.co2     1 ACP        -0.8292
      7 O2B         6.7722    4.7729   -3.0703 O.co2     1 ACP        -0.8292
      8 C3B         6.5759    2.1541   -3.7522 C.3       1 ACP        -0.6453
      9 PA          6.2292    3.5136    0.2496 P.3       1 ACP         1.7996
     10 O1A         6.6927    4.9186    0.5045 O.2       1 ACP        -0.8588
     11 O2A         6.9320    2.3979    1.1869 O.3       1 ACP        -0.8037
     12 O3A         6.5026    2.9775   -1.2516 O.3       1 ACP        -0.7988
     13 O5'         4.6408    3.2691    0.4376 O.3       1 ACP        -0.5960
     14 C5'         4.0922    1.9801    0.2227 C.3       1 ACP         0.1917
     15 C4'         2.5944    2.0310    0.4653 C.3       1 ACP         0.0908
     16 O4'         1.9327    2.5740   -0.6889 O.3       1 ACP        -0.4111
     17 C3'         1.9685    0.6634    0.6767 C.3       1 ACP         0.0927
     18 O3'         2.1425    0.1975    1.9977 O.3       1 ACP        -0.6127
     19 C2'         0.5176    0.9128    0.3099 C.3       1 ACP         0.1095
     20 O2'        -0.2103    1.4454    1.4152 O.3       1 ACP        -0.5953
     21 C1'         0.6219    1.9765   -0.7844 C.3       1 ACP         0.4273
     22 N9          0.4237    1.4496   -2.1357 N.pl3     1 ACP        -0.6934
     23 C8         -0.5566    1.8304   -3.0133 C.ar      1 ACP         0.5422
     24 N7         -0.4788    1.1815   -4.1563 N.2       1 ACP        -0.5596
     25 C5          0.5985    0.3438   -4.0126 C.ar      1 ACP        -0.2259
     26 C6          1.1840   -0.5863   -4.8658 C.ar      1 ACP         0.7526
     27 N6          0.6656   -0.8050   -6.1536 N.pl3     1 ACP        -0.9660
     28 N1          2.2653   -1.2823   -4.4393 N.ar      1 ACP        -0.8027
     29 C2          2.7197   -1.0279   -3.1884 C.ar      1 ACP         0.6758
     30 N3          2.2404   -0.1568   -2.2739 N.ar      1 ACP        -0.7221
     31 C4          1.1743    0.4954   -2.7613 C.ar      1 ACP         0.5858
     32 HOG2        8.8444    3.9760   -4.3799 H         1 ACP         0.4705
     33 HOG3        9.1702    0.3202   -5.4851 H         1 ACP         0.4705
     34 H3B1        6.1369    2.3227   -4.7421 H         1 ACP         0.1189
     35 H3B2        6.1140    1.2456   -3.3492 H         1 ACP         0.1189
     36 HOA2        6.8297    2.4637    2.1603 H         1 ACP         0.4679
     37 H5'1        4.3024    1.6721   -0.8067 H         1 ACP         0.0587
     38 H5'2        4.5673    1.2730    0.9105 H         1 ACP         0.0587
     39 H4'         2.3752    2.7029    1.3156 H         1 ACP         0.0938
     40 H3'         2.4336   -0.1217   -0.0016 H         1 ACP         0.0597
     41 HO3'        1.7160   -0.6716    2.0397 H         1 ACP         0.4554
     42 H2'         0.0316    0.0155   -0.0339 H         1 ACP         0.0710
     43 HO2'       -0.1608    0.7921    2.1351 H         1 ACP         0.4360
     44 H1'        -0.1474    2.7798   -0.6651 H         1 ACP         0.1247
     45 H8         -1.2942    2.5813   -2.7649 H         1 ACP         0.0875
     46 HN61       -0.1624   -0.3184   -6.4408 H         1 ACP         0.4433
     47 HN62        1.0729   -1.5128   -6.7350 H         1 ACP         0.4433
     48 H2          3.5863   -1.6031   -2.8800 H         1 ACP         0.0459
@<TRIPOS>BOND
     1    1    2 2
     2    1    3 1
     3    1    4 1
     4    1    8 1
     5    3   32 1
     6    4   33 1
     7    5    6 2
     8    5    7 1
     9    5    8 1
    10    5   12 1
    11    8   34 1
    12    8   35 1
    13    9   10 2
    14    9   11 1
    15    9   12 1
    16    9   13 1
    17   11   36 1
    18   13   14 1
    19   14   15 1
    20   14   37 1
    21   14   38 1
    22   15   16 1
    23   15   17 1
    24   15   39 1
    25   16   21 1
    26   17   18 1
    27   17   19 1
    28   17   40 1
    29   18   41 1
    30   19   20 1
    31   19   21 1
    32   19   42 1
    33   20   43 1
    34   21   22 1
    35   21   44 1
    36   22   23 ar
    37   22   31 ar
    38   23   24 ar
    39   23   45 1
    40   24   25 ar
    41   25   26 ar
    42   25   31 ar
    43   26   27 1
    44   26   28 ar
    45   27   46 1
    46   27   47 1
    47   28   29 ar
    48   29   30 ar
    49   29   48 1
    50   30   31 ar
@<TRIPOS>SUBSTRUCTURE
     1 ACP         1 GROUP 0 A     ****
@<TRIPOS>MOLECULE
[[5-(6-aminopurin-9-yl)-3,4-dihydroxy-tetrahydrofuran-2-yl]methoxy-hydroxy-phosphoryl]oxy-(phosphonomethyl)phosphinate
   48    50     1     0     0
SMALL
USER_CHARGES

@<TRIPOS>ATOM
      1 PG          0.7470   -1.2224   -7.0682 P.3       1 ACP         1.6292
      2 O1G         1.1148    0.1871   -7.4226 O.2       1 ACP        -0.8674
      3 O2G        -0.3120   -1.9348   -8.0586 O.3       1 ACP        -0.7977
      4 O3G         1.9782   -2.2668   -7.0124 O.3       1 ACP        -0.7977
      5 PB         -1.5985   -0.5567   -4.9854 P.3       1 ACP         1.4910
      6 O1B        -1.9198   -0.9459   -3.5610 O.co2     1 ACP        -0.8292
      7 O2B        -2.5705   -0.7803   -6.1206 O.co2     1 ACP        -0.8292
      8 C3B        -0.0189   -1.4043   -5.4414 C.3       1 ACP        -0.6453
      9 PA         -1.7713    2.3561   -4.5629 P.3       1 ACP         1.7996
     10 O1A        -3.0473    2.6678   -5.2898 O.2       1 ACP        -0.8588
     11 O2A        -0.6107    3.4686   -4.7436 O.3       1 ACP        -0.8037
     12 O3A        -1.0553    0.9802   -5.0212 O.3       1 ACP        -0.7988
     13 O5'        -1.9198    2.1711   -2.9623 O.3       1 ACP        -0.5960
     14 C5'        -0.7794    1.8744   -2.1748 C.3       1 ACP         0.1917
     15 C4'        -0.9699    2.4597   -0.7819 C.3       1 ACP         0.0908
     16 O4'        -2.1475    1.8640   -0.2014 O.3       1 ACP        -0.4111
     17 C3'         0.1697    2.1347    0.1695 C.3       1 ACP         0.0927
     18 O3'         0.1809    3.0982    1.2223 O.3       1 ACP        -0.6127
     19 C2'        -0.2543    0.7880    0.7187 C.3       1 ACP         0.1095
     20 O2'         0.3606    0.4944    1.9582 O.3       1 ACP        -0.5953
     21 C1'        -1.7682    0.9516    0.8548 C.3       1 ACP         0.4273
     22 N9         -2.5926   -0.2553    0.7436 N.pl3     1 ACP        -0.6934
     23 C8         -3.8700   -0.3163    0.2529 C.ar      1 ACP         0.5422
     24 N7         -4.3522   -1.5414    0.2751 N.2       1 ACP        -0.5596
     25 C5         -3.3434   -2.3070    0.8036 C.ar      1 ACP        -0.2259
     26 C6         -3.2433   -3.6673    1.0777 C.ar      1 ACP         0.7526
     27 N6         -4.3152   -4.5349    0.8066 N.pl3     1 ACP        -0.9660
     28 N1         -2.0949   -4.1491    1.6112 N.ar      1 ACP        -0.8027
     29 C2         -1.0966   -3.2647    1.8500 C.ar      1 ACP         0.6758
     30 N3         -1.0746   -1.9321    1.6291 N.ar      1 ACP        -0.7221
     31 C4         -2.2390   -1.5249    1.1020 C.ar      1 ACP         0.5858
     32 HOG2       -1.2015   -1.5365   -8.1695 H         1 ACP         0.4705
     33 HOG3        2.5133   -2.4145   -7.8212 H         1 ACP         0.4705
     34 H3B1       -0.1963   -2.4747   -5.2879 H         1 ACP         0.1189
     35 H3B2        0.7181   -1.0927   -4.6925 H         1 ACP         0.1189
     36 HOA2       -0.2786    3.6652   -5.6454 H         1 ACP         0.4679
     37 H5'1       -0.6593    0.7876   -2.1195 H         1 ACP         0.0587
     38 H5'2        0.1050    2.3070   -2.6537 H         1 ACP         0.0587
     39 H4'        -1.1469    3.5409   -0.8523 H         1 ACP         0.0938
     40 H3'         1.1601    2.1310   -0.2934 H         1 ACP         0.0597
     41 HO3'        0.3098    3.9616    0.8017 H         1 ACP         0.4554
     42 H2'        -0.0024   -0.0091    0.0062 H         1 ACP         0.0710
     43 HO2'        1.3225    0.4909    1.8095 H         1 ACP         0.4360
     44 H1'        -2.0584    1.4255    1.8301 H         1 ACP         0.1247
     45 H8         -4.3937    0.5597   -0.1045 H         1 ACP         0.0875
     46 HN61       -5.1761   -4.1600    0.4557 H         1 ACP         0.4433
     47 HN62       -4.2402   -5.5032    1.0550 H         1 ACP         0.4433
     48 H2         -0.1923   -3.6849    2.2775 H         1 ACP         0.0459
@<TRIPOS>BOND
     1    1    2 2
     2    1    3 1
     3    1    4 1
     4    1    8 1
     5    3   32 1
     6    4   33 1
     7    5    6 2
     8    5    7 1
     9    5    8 1
    10    5   12 1
    11    8   34 1
    12    8   35 1
    13    9   10 2
    14    9   11 1
    15    9   12 1
    16    9   13 1
    17   11   36 1
    18   13   14 1
    19   14   15 1
    20   14   37 1
    21   14   38 1
    22   15   16 1
    23   15   17 1
    24   15   39 1
    25   16   21 1
    26   17   18 1
    27   17   19 1
    28   17   40 1
    29   18   41 1
    30   19   20 1
    31   19   21 1
    32   19   42 1
    33   20   43 1
    34   21   22 1
    35   21   44 1
    36   22   23 ar
    37   22   31 ar
    38   23   24 ar
    39   23   45 1
    40   24   25 ar
    41   25   26 ar
    42   25   31 ar
    43   26   27 1
    44   26   28 ar
    45   27   46 1
    46   27   47 1
    47   28   29 ar
    48   29   30 ar
    49   29   48 1
    50   30   31 ar
@<TRIPOS>SUBSTRUCTURE
     1 ACP         1 GROUP 0 A     ****
@<TRIPOS>MOLECULE
[[5-(6-aminopurin-9-yl)-3,4-dihydroxy-tetrahydrofuran-2-yl]methoxy-hydroxy-phosphoryl]oxy-(phosphonomethyl)phosphinate
   48    50     1     0     0
SMALL
USER_CHARGES

@<TRIPOS>ATOM
      1 PG         -4.5662    5.9851   -1.4838 P.3       1 ACP         1.6292
      2 O1G        -5.7748    5.5228   -2.2408 O.2       1 ACP        -0.8674
      3 O2G        -3.1475    5.7206   -2.2100 O.3       1 ACP        -0.7977
      4 O3G        -4.5275    7.5621   -1.1357 O.3       1 ACP        -0.7977
      5 PB         -2.9443    5.6052    1.2563 P.3       1 ACP         1.4910
      6 O1B        -3.1080    4.7619    2.4995 O.co2     1 ACP        -0.8292
      7 O2B        -2.8316    7.1110    1.3132 O.co2     1 ACP        -0.8292
      8 C3B        -4.3573    5.2033    0.1323 C.3       1 ACP        -0.6453
      9 PA         -0.1733    4.7801    0.6785 P.3       1 ACP         1.7996
     10 O1A         0.5701    6.0367    1.0281 O.2       1 ACP        -0.8588
     11 O2A         0.3946    4.0088   -0.6253 O.3       1 ACP        -0.8037
     12 O3A        -1.7399    4.9978    0.3404 O.3       1 ACP        -0.7988
     13 O5'        -0.2069    3.6554    1.8412 O.3       1 ACP        -0.5960
     14 C5'        -0.8811    2.4285    1.6206 C.3       1 ACP         0.1917
     15 C4'        -0.1994    1.3333    2.4288 C.3       1 ACP         0.0908
     16 O4'        -1.1285    0.2356    2.5840 O.3       1 ACP        -0.4111
     17 C3'         1.0324    0.7610    1.7344 C.3       1 ACP         0.0927
     18 O3'         1.9175    0.2377    2.7247 O.3       1 ACP        -0.6127
     19 C2'         0.4468   -0.3802    0.9263 C.3       1 ACP         0.1095
     20 O2'         1.3993   -1.3703    0.5961 O.3       1 ACP        -0.5953
     21 C1'        -0.6159   -0.9100    1.8769 C.3       1 ACP         0.4273
     22 N9         -1.7127   -1.6108    1.2130 N.pl3     1 ACP        -0.6934
     23 C8         -3.0342   -1.2519    1.2439 C.ar      1 ACP         0.5422
     24 N7         -3.7886   -2.0756    0.5467 N.2       1 ACP        -0.5596
     25 C5         -2.9179   -3.0087    0.0426 C.ar      1 ACP        -0.2259
     26 C6         -3.1045   -4.1262   -0.7649 C.ar      1 ACP         0.7526
     27 N6         -4.3870   -4.4763   -1.2206 N.pl3     1 ACP        -0.9660
     28 N1         -2.0306   -4.8769   -1.1094 N.ar      1 ACP        -0.8027
     29 C2         -0.8199   -4.4895   -0.6402 C.ar      1 ACP         0.6758
     30 N3         -0.5140   -3.4335    0.1448 N.ar      1 ACP        -0.7221
     31 C4         -1.6202   -2.7371    0.4460 C.ar      1 ACP         0.5858
     32 HOG2       -2.3230    6.0029   -1.7597 H         1 ACP         0.4705
     33 HOG3       -4.5433    8.2117   -1.8706 H         1 ACP         0.4705
     34 H3B1       -5.2673    5.4074    0.7077 H         1 ACP         0.1189
     35 H3B2       -4.3174    4.1198   -0.0274 H         1 ACP         0.1189
     36 HOA2        0.4028    4.4770   -1.4871 H         1 ACP         0.4679
     37 H5'1       -1.9259    2.5372    1.9293 H         1 ACP         0.0587
     38 H5'2       -0.8477    2.1923    0.5521 H         1 ACP         0.0587
     39 H4'         0.0402    1.7079    3.4342 H         1 ACP         0.0938
     40 H3'         1.5907    1.4859    1.1353 H         1 ACP         0.0597
     41 HO3'        2.6839   -0.1150    2.2479 H         1 ACP         0.4554
     42 H2'        -0.0017    0.0018    0.0005 H         1 ACP         0.0710
     43 HO2'        0.9369   -2.0558    0.0825 H         1 ACP         0.4360
     44 H1'        -0.1998   -1.6319    2.6178 H         1 ACP         0.1247
     45 H8         -3.3847   -0.3852    1.7876 H         1 ACP         0.0875
     46 HN61       -5.1798   -3.9409   -0.9211 H         1 ACP         0.4433
     47 HN62       -4.5065   -5.3114   -1.7621 H         1 ACP         0.4433
     48 H2          0.0171   -5.1133   -0.9354 H         1 ACP         0.0459
@<TRIPOS>BOND
     1    1    2 2
     2    1    3 1
     3    1    4 1
     4    1    8 1
     5    3   32 1
     6    4   33 1
     7    5    6 2
     8    5    7 1
     9    5    8 1
    10    5   12 1
    11    8   34 1
    12    8   35 1
    13    9   10 2
    14    9   11 1
    15    9   12 1
    16    9   13 1
    17   11   36 1
    18   13   14 1
    19   14   15 1
    20   14   37 1
    21   14   38 1
    22   15   16 1
    23   15   17 1
    24   15   39 1
    25   16   21 1
    26   17   18 1
    27   17   19 1
    28   17   40 1
    29   18   41 1
    30   19   20 1
    31   19   21 1
    32   19   42 1
    33   20   43 1
    34   21   22 1
    35   21   44 1
    36   22   23 ar
    37   22   31 ar
    38   23   24 ar
    39   23   45 1
    40   24   25 ar
    41   25   26 ar
    42   25   31 ar
    43   26   27 1
    44   26   28 ar
    45   27   46 1
    46   27   47 1
    47   28   29 ar
    48   29   30 ar
    49   29   48 1
    50   30   31 ar
@<TRIPOS>SUBSTRUCTURE
     1 ACP         1 GROUP 0 A     ****
@<TRIPOS>MOLECULE
[[5-(6-aminopurin-9-yl)-3,4-dihydroxy-tetrahydrofuran-2-yl]methoxy-hydroxy-phosphoryl]oxy-(phosphonomethyl)phosphinate
   48    50     1     0     0
SMALL
USER_CHARGES

@<TRIPOS>ATOM
      1 PG          9.2459   -0.4198    2.1059 P.3       1 ACP         1.6292
      2 O1G         9.9269   -0.0916    3.4005 O.2       1 ACP        -0.8674
      3 O2G         9.4250    0.6726    0.9292 O.3       1 ACP        -0.7977
      4 O3G         9.7052   -1.8048    1.4127 O.3       1 ACP        -0.7977
      5 PB          6.3864   -1.0048    0.7776 P.3       1 ACP         1.4910
      6 O1B         4.9601   -1.0730    1.2722 O.co2     1 ACP        -0.8292
      7 O2B         7.0421   -2.1542    0.0480 O.co2     1 ACP        -0.8292
      8 C3B         7.4522   -0.6009    2.2345 C.3       1 ACP        -0.6453
      9 PA          5.8746    0.9206   -1.3958 P.3       1 ACP         1.7996
     10 O1A         6.0243    0.0318   -2.5963 O.2       1 ACP        -0.8588
     11 O2A         6.4832    2.4075   -1.5854 O.3       1 ACP        -0.8037
     12 O3A         6.6072    0.3762   -0.0606 O.3       1 ACP        -0.7988
     13 O5'         4.3521    1.1579   -0.9020 O.3       1 ACP        -0.5960
     14 C5'         4.0922    1.9801    0.2227 C.3       1 ACP         0.1917
     15 C4'         2.5944    2.0310    0.4653 C.3       1 ACP         0.0908
     16 O4'         1.9327    2.5740   -0.6889 O.3       1 ACP        -0.4111
     17 C3'         1.9685    0.6634    0.6767 C.3       1 ACP         0.0927
     18 O3'         2.1425    0.1975    1.9977 O.3       1 ACP        -0.6127
     19 C2'         0.5176    0.9128    0.3099 C.3       1 ACP         0.1095
     20 O2'        -0.2103    1.4454    1.4152 O.3       1 ACP        -0.5953
     21 C1'         0.6219    1.9765   -0.7844 C.3       1 ACP         0.4273
     22 N9          0.4237    1.4496   -2.1357 N.pl3     1 ACP        -0.6934
     23 C8         -0.5566    1.8304   -3.0133 C.ar      1 ACP         0.5422
     24 N7         -0.4788    1.1815   -4.1563 N.2       1 ACP        -0.5596
     25 C5          0.5985    0.3438   -4.0126 C.ar      1 ACP        -0.2259
     26 C6          1.1840   -0.5863   -4.8658 C.ar      1 ACP         0.7526
     27 N6          0.6656   -0.8050   -6.1536 N.pl3     1 ACP        -0.9660
     28 N1          2.2653   -1.2823   -4.4393 N.ar      1 ACP        -0.8027
     29 C2          2.7197   -1.0279   -3.1884 C.ar      1 ACP         0.6758
     30 N3          2.2404   -0.1568   -2.2739 N.ar      1 ACP        -0.7221
     31 C4          1.1743    0.4954   -2.7613 C.ar      1 ACP         0.5858
     32 HOG2        9.0005    0.5091    0.0602 H         1 ACP         0.4705
     33 HOG3       10.6459   -1.9207    1.1598 H         1 ACP         0.4705
     34 H3B1        7.2611   -1.3863    2.9745 H         1 ACP         0.1189
     35 H3B2        7.0549    0.3321    2.6500 H         1 ACP         0.1189
     36 HOA2        6.1250    2.9792   -2.2976 H         1 ACP         0.4679
     37 H5'1        4.6066    1.5623    1.0942 H         1 ACP         0.0587
     38 H5'2        4.4821    2.9842    0.0261 H         1 ACP         0.0587
     39 H4'         2.3752    2.7029    1.3156 H         1 ACP         0.0938
     40 H3'         2.4336   -0.1217   -0.0016 H         1 ACP         0.0597
     41 HO3'        1.7160   -0.6716    2.0397 H         1 ACP         0.4554
     42 H2'         0.0316    0.0155   -0.0339 H         1 ACP         0.0710
     43 HO2'       -0.1608    0.7921    2.1351 H         1 ACP         0.4360
     44 H1'        -0.1474    2.7798   -0.6651 H         1 ACP         0.1247
     45 H8         -1.2942    2.5813   -2.7649 H         1 ACP         0.0875
     46 HN61       -0.1624   -0.3184   -6.4408 H         1 ACP         0.4433
     47 HN62        1.0729   -1.5128   -6.7350 H         1 ACP         0.4433
     48 H2          3.5863   -1.6031   -2.8800 H         1 ACP         0.0459
@<TRIPOS>BOND
     1    1    2 2
     2    1    3 1
     3    1    4 1
     4    1    8 1
     5    3   32 1
     6    4   33 1
     7    5    6 2
     8    5    7 1
     9    5    8 1
    10    5   12 1
    11    8   34 1
    12    8   35 1
    13    9   10 2
    14    9   11 1
    15    9   12 1
    16    9   13 1
    17   11   36 1
    18   13   14 1
    19   14   15 1
    20   14   37 1
    21   14   38 1
    22   15   16 1
    23   15   17 1
    24   15   39 1
    25   16   21 1
    26   17   18 1
    27   17   19 1
    28   17   40 1
    29   18   41 1
    30   19   20 1
    31   19   21 1
    32   19   42 1
    33   20   43 1
    34   21   22 1
    35   21   44 1
    36   22   23 ar
    37   22   31 ar
    38   23   24 ar
    39   23   45 1
    40   24   25 ar
    41   25   26 ar
    42   25   31 ar
    43   26   27 1
    44   26   28 ar
    45   27   46 1
    46   27   47 1
    47   28   29 ar
    48   29   30 ar
    49   29   48 1
    50   30   31 ar
@<TRIPOS>SUBSTRUCTURE
     1 ACP         1 GROUP 0 A     ****
@<TRIPOS>MOLECULE
[[5-(6-aminopurin-9-yl)-3,4-dihydroxy-tetrahydrofuran-2-yl]methoxy-hydroxy-phosphoryl]oxy-(phosphonomethyl)phosphinate
   48    50     1     0     0
SMALL
USER_CHARGES

@<TRIPOS>ATOM
      1 PG          8.3264    0.6133   -3.7860 P.3       1 ACP         1.6292
      2 O1G         9.0983    0.7822   -2.5120 O.2       1 ACP        -0.8674
      3 O2G         8.7711    1.5796   -5.0020 O.3       1 ACP        -0.7977
      4 O3G         8.3769   -0.8647   -4.4363 O.3       1 ACP        -0.7977
      5 PB          5.8821    2.5666   -3.0839 P.3       1 ACP         1.4910
      6 O1B         4.3755    2.4501   -3.0751 O.co2     1 ACP        -0.8292
      7 O2B         6.6032    3.6336   -3.8744 O.co2     1 ACP        -0.8292
      8 C3B         6.5543    0.9319   -3.6294 C.3       1 ACP        -0.6453
      9 PA          6.1389    3.5429   -0.3138 P.3       1 ACP         1.7996
     10 O1A         6.5226    4.9737   -0.5571 O.2       1 ACP        -0.8588
     11 O2A         6.9057    2.8480    0.9299 O.3       1 ACP        -0.8037
     12 O3A         6.4393    2.5464   -1.5517 O.3       1 ACP        -0.7988
     13 O5'         4.5673    3.2930   -0.0211 O.3       1 ACP        -0.5960
     14 C5'         4.0922    1.9801    0.2227 C.3       1 ACP         0.1917
     15 C4'         2.5944    2.0310    0.4653 C.3       1 ACP         0.0908
     16 O4'         1.9327    2.5740   -0.6889 O.3       1 ACP        -0.4111
     17 C3'         1.9685    0.6634    0.6767 C.3       1 ACP         0.0927
     18 O3'         2.1425    0.1975    1.9977 O.3       1 ACP        -0.6127
     19 C2'         0.5176    0.9128    0.3099 C.3       1 ACP         0.1095
     20 O2'        -0.2103    1.4454    1.4152 O.3       1 ACP        -0.5953
     21 C1'         0.6219    1.9765   -0.7844 C.3       1 ACP         0.4273
     22 N9          0.4237    1.4496   -2.1357 N.pl3     1 ACP        -0.6934
     23 C8          0.7352    0.1857   -2.5616 C.ar      1 ACP         0.5422
     24 N7          0.4386    0.0025   -3.8312 N.2       1 ACP        -0.5596
     25 C5         -0.0877    1.2002   -4.2458 C.ar      1 ACP        -0.2259
     26 C6         -0.5826    1.6331   -5.4719 C.ar      1 ACP         0.7526
     27 N6         -0.6027    0.7720   -6.5824 N.pl3     1 ACP        -0.9660
     28 N1         -1.0479    2.9006   -5.5841 N.ar      1 ACP        -0.8027
     29 C2         -1.0031    3.6836   -4.4792 C.ar      1 ACP         0.6758
     30 N3         -0.5493    3.3800   -3.2436 N.ar      1 ACP        -0.7221
     31 C4         -0.1057    2.1146   -3.2048 C.ar      1 ACP         0.5858
     32 HOG2        8.7147    2.5515   -4.8818 H         1 ACP         0.4705
     33 HOG3        9.2450   -1.2401   -4.6965 H         1 ACP         0.4705
     34 H3B1        6.1045    0.7329   -4.6087 H         1 ACP         0.1189
     35 H3B2        6.1454    0.1900   -2.9341 H         1 ACP         0.1189
     36 HOA2        6.8017    3.2332    1.8260 H         1 ACP         0.4679
     37 H5'1        4.3175    1.3541   -0.6468 H         1 ACP         0.0587
     38 H5'2        4.6079    1.5730    1.0985 H         1 ACP         0.0587
     39 H4'         2.3752    2.7029    1.3156 H         1 ACP         0.0938
     40 H3'         2.4336   -0.1217   -0.0016 H         1 ACP         0.0597
     41 HO3'        1.7160   -0.6716    2.0397 H         1 ACP         0.4554
     42 H2'         0.0316    0.0155   -0.0339 H         1 ACP         0.0710
     43 HO2'       -0.1608    0.7921    2.1351 H         1 ACP         0.4360
     44 H1'        -0.1474    2.7798   -0.6651 H         1 ACP         0.1247
     45 H8          1.1731   -0.5535   -1.9047 H         1 ACP         0.0875
     46 HN61       -0.2130   -0.1479   -6.4999 H         1 ACP         0.4433
     47 HN62       -0.9195    1.1179   -7.4683 H         1 ACP         0.4433
     48 H2         -1.3833    4.6919   -4.6052 H         1 ACP         0.0459
@<TRIPOS>BOND
     1    1    2 2
     2    1    3 1
     3    1    4 1
     4    1    8 1
     5    3   32 1
     6    4   33 1
     7    5    6 2
     8    5    7 1
     9    5    8 1
    10    5   12 1
    11    8   34 1
    12    8   35 1
    13    9   10 2
    14    9   11 1
    15    9   12 1
    16    9   13 1
    17   11   36 1
    18   13   14 1
    19   14   15 1
    20   14   37 1
    21   14   38 1
    22   15   16 1
    23   15   17 1
    24   15   39 1
    25   16   21 1
    26   17   18 1
    27   17   19 1
    28   17   40 1
    29   18   41 1
    30   19   20 1
    31   19   21 1
    32   19   42 1
    33   20   43 1
    34   21   22 1
    35   21   44 1
    36   22   23 ar
    37   22   31 ar
    38   23   24 ar
    39   23   45 1
    40   24   25 ar
    41   25   26 ar
    42   25   31 ar
    43   26   27 1
    44   26   28 ar
    45   27   46 1
    46   27   47 1
    47   28   29 ar
    48   29   30 ar
    49   29   48 1
    50   30   31 ar
@<TRIPOS>SUBSTRUCTURE
     1 ACP         1 GROUP 0 A     ****
@<TRIPOS>MOLECULE
[[5-(6-aminopurin-9-yl)-3,4-dihydroxy-tetrahydrofuran-2-yl]methoxy-hydroxy-phosphoryl]oxy-(phosphonomethyl)phosphinate
   48    50     1     0     0
SMALL
USER_CHARGES

@<TRIPOS>ATOM
      1 PG         -1.9493    2.2164   -7.3532 P.3       1 ACP         1.6292
      2 O1G        -2.0377    3.1095   -6.1524 O.2       1 ACP        -0.8674
      3 O2G        -3.3377    1.9726   -8.1425 O.3       1 ACP        -0.7977
      4 O3G        -0.9351    2.7088   -8.5102 O.3       1 ACP        -0.7977
      5 PB          0.2756    0.1948   -6.2371 P.3       1 ACP         1.4910
      6 O1B         1.3216    0.7464   -7.1780 O.co2     1 ACP        -0.8292
      7 O2B         0.2721   -1.2499   -5.7939 O.co2     1 ACP        -0.8292
      8 C3B        -1.3770    0.5404   -6.9926 C.3       1 ACP        -0.6453
      9 PA          1.2447    1.5969   -3.8314 P.3       1 ACP         1.7996
     10 O1A         2.4439    2.3084   -4.3878 O.2       1 ACP        -0.8588
     11 O2A         1.5839    0.2084   -3.0736 O.3       1 ACP        -0.8037
     12 O3A         0.1441    1.1693   -4.9366 O.3       1 ACP        -0.7988
     13 O5'         0.3749    2.4474   -2.7646 O.3       1 ACP        -0.5960
     14 C5'        -0.7794    1.8744   -2.1748 C.3       1 ACP         0.1917
     15 C4'        -0.9699    2.4597   -0.7819 C.3       1 ACP         0.0908
     16 O4'        -2.1475    1.8640   -0.2014 O.3       1 ACP        -0.4111
     17 C3'         0.1697    2.1347    0.1695 C.3       1 ACP         0.0927
     18 O3'         0.1809    3.0982    1.2223 O.3       1 ACP        -0.6127
     19 C2'        -0.2543    0.7880    0.7187 C.3       1 ACP         0.1095
     20 O2'         0.3606    0.4944    1.9582 O.3       1 ACP        -0.5953
     21 C1'        -1.7682    0.9516    0.8548 C.3       1 ACP         0.4273
     22 N9         -2.5926   -0.2553    0.7436 N.pl3     1 ACP        -0.6934
     23 C8         -3.8700   -0.3163    0.2529 C.ar      1 ACP         0.5422
     24 N7         -4.3522   -1.5414    0.2751 N.2       1 ACP        -0.5596
     25 C5         -3.3434   -2.3070    0.8036 C.ar      1 ACP        -0.2259
     26 C6         -3.2433   -3.6673    1.0777 C.ar      1 ACP         0.7526
     27 N6         -4.3152   -4.5349    0.8066 N.pl3     1 ACP        -0.9660
     28 N1         -2.0949   -4.1491    1.6112 N.ar      1 ACP        -0.8027
     29 C2         -1.0966   -3.2647    1.8500 C.ar      1 ACP         0.6758
     30 N3         -1.0746   -1.9321    1.6291 N.ar      1 ACP        -0.7221
     31 C4         -2.2390   -1.5249    1.1020 C.ar      1 ACP         0.5858
     32 HOG2       -4.0903    1.5627   -7.6651 H         1 ACP         0.4705
     33 HOG3       -1.0887    3.5778   -8.9387 H         1 ACP         0.4705
     34 H3B1       -2.1156    0.0863   -6.3223 H         1 ACP         0.1189
     35 H3B2       -1.4054   -0.0272   -7.9297 H         1 ACP         0.1189
     36 HOA2        2.0222   -0.5111   -3.5759 H         1 ACP         0.4679
     37 H5'1       -1.6471    2.0964   -2.8045 H         1 ACP         0.0587
     38 H5'2       -0.6478    0.7889   -2.1188 H         1 ACP         0.0587
     39 H4'        -1.1469    3.5409   -0.8523 H         1 ACP         0.0938
     40 H3'         1.1601    2.1310   -0.2934 H         1 ACP         0.0597
     41 HO3'        0.3098    3.9616    0.8017 H         1 ACP         0.4554
     42 H2'        -0.0024   -0.0091    0.0062 H         1 ACP         0.0710
     43 HO2'        1.3225    0.4909    1.8095 H         1 ACP         0.4360
     44 H1'        -2.0584    1.4255    1.8301 H         1 ACP         0.1247
     45 H8         -4.3937    0.5597   -0.1045 H         1 ACP         0.0875
     46 HN61       -5.1761   -4.1600    0.4557 H         1 ACP         0.4433
     47 HN62       -4.2402   -5.5032    1.0550 H         1 ACP         0.4433
     48 H2         -0.1923   -3.6849    2.2775 H         1 ACP         0.0459
@<TRIPOS>BOND
     1    1    2 2
     2    1    3 1
     3    1    4 1
     4    1    8 1
     5    3   32 1
     6    4   33 1
     7    5    6 2
     8    5    7 1
     9    5    8 1
    10    5   12 1
    11    8   34 1
    12    8   35 1
    13    9   10 2
    14    9   11 1
    15    9   12 1
    16    9   13 1
    17   11   36 1
    18   13   14 1
    19   14   15 1
    20   14   37 1
    21   14   38 1
    22   15   16 1
    23   15   17 1
    24   15   39 1
    25   16   21 1
    26   17   18 1
    27   17   19 1
    28   17   40 1
    29   18   41 1
    30   19   20 1
    31   19   21 1
    32   19   42 1
    33   20   43 1
    34   21   22 1
    35   21   44 1
    36   22   23 ar
    37   22   31 ar
    38   23   24 ar
    39   23   45 1
    40   24   25 ar
    41   25   26 ar
    42   25   31 ar
    43   26   27 1
    44   26   28 ar
    45   27   46 1
    46   27   47 1
    47   28   29 ar
    48   29   30 ar
    49   29   48 1
    50   30   31 ar
@<TRIPOS>SUBSTRUCTURE
     1 ACP         1 GROUP 0 A     ****
@<TRIPOS>MOLECULE
[[5-(6-aminopurin-9-yl)-3,4-dihydroxy-tetrahydrofuran-2-yl]methoxy-hydroxy-phosphoryl]oxy-(phosphonomethyl)phosphinate
   48    50     1     0     0
SMALL
USER_CHARGES

@<TRIPOS>ATOM
      1 PG          7.8930   -0.5960   -1.5340 P.3       1 ACP         1.6292
      2 O1G         8.3962   -1.4343   -0.3976 O.2       1 ACP        -0.8674
      3 O2G         8.1097   -1.2205   -3.0081 O.3       1 ACP        -0.7977
      4 O3G         6.3154   -0.2506   -1.4951 O.3       1 ACP        -0.7977
      5 PB          8.5731    2.2823   -0.2947 P.3       1 ACP         1.4910
      6 O1B         9.3296    3.5056   -0.7580 O.co2     1 ACP        -0.8292
      7 O2B         8.9090    1.5672    0.9935 O.co2     1 ACP        -0.8292
      8 C3B         8.6664    1.0330   -1.6555 C.3       1 ACP        -0.6453
      9 PA          6.0788    3.6958    0.3928 P.3       1 ACP         1.7996
     10 O1A         6.4678    5.1128    0.0855 O.2       1 ACP        -0.8588
     11 O2A         6.1996    3.2939    1.9553 O.3       1 ACP        -0.8037
     12 O3A         6.9706    2.5756   -0.3591 O.3       1 ACP        -0.7988
     13 O5'         4.5673    3.2930   -0.0211 O.3       1 ACP        -0.5960
     14 C5'         4.0922    1.9801    0.2227 C.3       1 ACP         0.1917
     15 C4'         2.5944    2.0310    0.4653 C.3       1 ACP         0.0908
     16 O4'         1.9327    2.5740   -0.6889 O.3       1 ACP        -0.4111
     17 C3'         1.9685    0.6634    0.6767 C.3       1 ACP         0.0927
     18 O3'         2.1425    0.1975    1.9977 O.3       1 ACP        -0.6127
     19 C2'         0.5176    0.9128    0.3099 C.3       1 ACP         0.1095
     20 O2'        -0.2103    1.4454    1.4152 O.3       1 ACP        -0.5953
     21 C1'         0.6219    1.9765   -0.7844 C.3       1 ACP         0.4273
     22 N9          0.4237    1.4496   -2.1357 N.pl3     1 ACP        -0.6934
     23 C8         -0.5566    1.8304   -3.0133 C.ar      1 ACP         0.5422
     24 N7         -0.4788    1.1815   -4.1563 N.2       1 ACP        -0.5596
     25 C5          0.5985    0.3438   -4.0126 C.ar      1 ACP        -0.2259
     26 C6          1.1840   -0.5863   -4.8658 C.ar      1 ACP         0.7526
     27 N6          0.6656   -0.8050   -6.1536 N.pl3     1 ACP        -0.9660
     28 N1          2.2653   -1.2823   -4.4393 N.ar      1 ACP        -0.8027
     29 C2          2.7197   -1.0279   -3.1884 C.ar      1 ACP         0.6758
     30 N3          2.2404   -0.1568   -2.2739 N.ar      1 ACP        -0.7221
     31 C4          1.1743    0.4954   -2.7613 C.ar      1 ACP         0.5858
     32 HOG2        7.6992   -2.0850   -3.2232 H         1 ACP         0.4705
     33 HOG3        5.9304    0.2951   -2.2136 H         1 ACP         0.4705
     34 H3B1        9.7339    0.8685   -1.8408 H         1 ACP         0.1189
     35 H3B2        8.2605    1.5258   -2.5463 H         1 ACP         0.1189
     36 HOA2        5.6689    3.7896    2.6148 H         1 ACP         0.4679
     37 H5'1        4.3175    1.3541   -0.6468 H         1 ACP         0.0587
     38 H5'2        4.6079    1.5730    1.0985 H         1 ACP         0.0587
     39 H4'         2.3752    2.7029    1.3156 H         1 ACP         0.0938
     40 H3'         2.4336   -0.1217   -0.0016 H         1 ACP         0.0597
     41 HO3'        1.7160   -0.6716    2.0397 H         1 ACP         0.4554
     42 H2'         0.0316    0.0155   -0.0339 H         1 ACP         0.0710
     43 HO2'       -0.1608    0.7921    2.1351 H         1 ACP         0.4360
     44 H1'        -0.1474    2.7798   -0.6651 H         1 ACP         0.1247
     45 H8         -1.2942    2.5813   -2.7649 H         1 ACP         0.0875
     46 HN61       -0.1624   -0.3184   -6.4408 H         1 ACP         0.4433
     47 HN62        1.0729   -1.5128   -6.7350 H         1 ACP         0.4433
     48 H2          3.5863   -1.6031   -2.8800 H         1 ACP         0.0459
@<TRIPOS>BOND
     1    1    2 2
     2    1    3 1
     3    1    4 1
     4    1    8 1
     5    3   32 1
     6    4   33 1
     7    5    6 2
     8    5    7 1
     9    5    8 1
    10    5   12 1
    11    8   34 1
    12    8   35 1
    13    9   10 2
    14    9   11 1
    15    9   12 1
    16    9   13 1
    17   11   36 1
    18   13   14 1
    19   14   15 1
    20   14   37 1
    21   14   38 1
    22   15   16 1
    23   15   17 1
    24   15   39 1
    25   16   21 1
    26   17   18 1
    27   17   19 1
    28   17   40 1
    29   18   41 1
    30   19   20 1
    31   19   21 1
    32   19   42 1
    33   20   43 1
    34   21   22 1
    35   21   44 1
    36   22   23 ar
    37   22   31 ar
    38   23   24 ar
    39   23   45 1
    40   24   25 ar
    41   25   26 ar
    42   25   31 ar
    43   26   27 1
    44   26   28 ar
    45   27   46 1
    46   27   47 1
    47   28   29 ar
    48   29   30 ar
    49   29   48 1
    50   30   31 ar
@<TRIPOS>SUBSTRUCTURE
     1 ACP         1 GROUP 0 A     ****
@<TRIPOS>MOLECULE
[[5-(6-aminopurin-9-yl)-3,4-dihydroxy-tetrahydrofuran-2-yl]methoxy-hydroxy-phosphoryl]oxy-(phosphonomethyl)phosphinate
   48    50     1     0     0
SMALL
USER_CHARGES

@<TRIPOS>ATOM
      1 PG          9.2459   -0.4198    2.1059 P.3       1 ACP         1.6292
      2 O1G         9.9269   -0.0916    3.4005 O.2       1 ACP        -0.8674
      3 O2G         9.4250    0.6726    0.9292 O.3       1 ACP        -0.7977
      4 O3G         9.7052   -1.8048    1.4127 O.3       1 ACP        -0.7977
      5 PB          6.3864   -1.0048    0.7776 P.3       1 ACP         1.4910
      6 O1B         4.9601   -1.0730    1.2722 O.co2     1 ACP        -0.8292
      7 O2B         7.0421   -2.1542    0.0480 O.co2     1 ACP        -0.8292
      8 C3B         7.4522   -0.6009    2.2345 C.3       1 ACP        -0.6453
      9 PA          5.8746    0.9206   -1.3958 P.3       1 ACP         1.7996
     10 O1A         6.0243    0.0318   -2.5963 O.2       1 ACP        -0.8588
     11 O2A         6.4832    2.4075   -1.5854 O.3       1 ACP        -0.8037
     12 O3A         6.6072    0.3762   -0.0606 O.3       1 ACP        -0.7988
     13 O5'         4.3521    1.1579   -0.9020 O.3       1 ACP        -0.5960
     14 C5'         4.0922    1.9801    0.2227 C.3       1 ACP         0.1917
     15 C4'         2.5944    2.0310    0.4653 C.3       1 ACP         0.0908
     16 O4'         1.9327    2.5740   -0.6889 O.3       1 ACP        -0.4111
     17 C3'         1.9685    0.6634    0.6767 C.3       1 ACP         0.0927
     18 O3'         2.1425    0.1975    1.9977 O.3       1 ACP        -0.6127
     19 C2'         0.5176    0.9128    0.3099 C.3       1 ACP         0.1095
     20 O2'        -0.2103    1.4454    1.4152 O.3       1 ACP        -0.5953
     21 C1'         0.6219    1.9765   -0.7844 C.3       1 ACP         0.4273
     22 N9          0.4237    1.4496   -2.1357 N.pl3     1 ACP        -0.6934
     23 C8          0.7352    0.1857   -2.5616 C.ar      1 ACP         0.5422
     24 N7          0.4386    0.0025   -3.8312 N.2       1 ACP        -0.5596
     25 C5         -0.0877    1.2002   -4.2458 C.ar      1 ACP        -0.2259
     26 C6         -0.5826    1.6331   -5.4719 C.ar      1 ACP         0.7526
     27 N6         -0.6027    0.7720   -6.5824 N.pl3     1 ACP        -0.9660
     28 N1         -1.0479    2.9006   -5.5841 N.ar      1 ACP        -0.8027
     29 C2         -1.0031    3.6836   -4.4792 C.ar      1 ACP         0.6758
     30 N3         -0.5493    3.3800   -3.2436 N.ar      1 ACP        -0.7221
     31 C4         -0.1057    2.1146   -3.2048 C.ar      1 ACP         0.5858
     32 HOG2        9.0005    0.5091    0.0602 H         1 ACP         0.4705
     33 HOG3       10.6459   -1.9207    1.1598 H         1 ACP         0.4705
     34 H3B1        7.2611   -1.3863    2.9745 H         1 ACP         0.1189
     35 H3B2        7.0549    0.3321    2.6500 H         1 ACP         0.1189
     36 HOA2        6.1250    2.9792   -2.2976 H         1 ACP         0.4679
     37 H5'1        4.6066    1.5623    1.0942 H         1 ACP         0.0587
     38 H5'2        4.4821    2.9842    0.0261 H         1 ACP         0.0587
     39 H4'         2.3752    2.7029    1.3156 H         1 ACP         0.0938
     40 H3'         2.4336   -0.1217   -0.0016 H         1 ACP         0.0597
     41 HO3'        1.7160   -0.6716    2.0397 H         1 ACP         0.4554
     42 H2'         0.0316    0.0155   -0.0339 H         1 ACP         0.0710
     43 HO2'       -0.1608    0.7921    2.1351 H         1 ACP         0.4360
     44 H1'        -0.1474    2.7798   -0.6651 H         1 ACP         0.1247
     45 H8          1.1731   -0.5535   -1.9047 H         1 ACP         0.0875
     46 HN61       -0.2130   -0.1479   -6.4999 H         1 ACP         0.4433
     47 HN62       -0.9195    1.1179   -7.4683 H         1 ACP         0.4433
     48 H2         -1.3833    4.6919   -4.6052 H         1 ACP         0.0459
@<TRIPOS>BOND
     1    1    2 2
     2    1    3 1
     3    1    4 1
     4    1    8 1
     5    3   32 1
     6    4   33 1
     7    5    6 2
     8    5    7 1
     9    5    8 1
    10    5   12 1
    11    8   34 1
    12    8   35 1
    13    9   10 2
    14    9   11 1
    15    9   12 1
    16    9   13 1
    17   11   36 1
    18   13   14 1
    19   14   15 1
    20   14   37 1
    21   14   38 1
    22   15   16 1
    23   15   17 1
    24   15   39 1
    25   16   21 1
    26   17   18 1
    27   17   19 1
    28   17   40 1
    29   18   41 1
    30   19   20 1
    31   19   21 1
    32   19   42 1
    33   20   43 1
    34   21   22 1
    35   21   44 1
    36   22   23 ar
    37   22   31 ar
    38   23   24 ar
    39   23   45 1
    40   24   25 ar
    41   25   26 ar
    42   25   31 ar
    43   26   27 1
    44   26   28 ar
    45   27   46 1
    46   27   47 1
    47   28   29 ar
    48   29   30 ar
    49   29   48 1
    50   30   31 ar
@<TRIPOS>SUBSTRUCTURE
     1 ACP         1 GROUP 0 A     ****
@<TRIPOS>MOLECULE
[[5-(6-aminopurin-9-yl)-3,4-dihydroxy-tetrahydrofuran-2-yl]methoxy-hydroxy-phosphoryl]oxy-(phosphonomethyl)phosphinate
   48    50     1     0     0
SMALL
USER_CHARGES

@<TRIPOS>ATOM
      1 PG          5.9564    3.4542   -4.5369 P.3       1 ACP         1.6292
      2 O1G         4.6880    3.6325   -3.7579 O.2       1 ACP        -0.8674
      3 O2G         5.7882    2.7783   -5.9946 O.3       1 ACP        -0.7977
      4 O3G         6.7808    4.8103   -4.8390 O.3       1 ACP        -0.7977
      5 PB          7.9002    2.7991   -2.0721 P.3       1 ACP         1.4910
      6 O1B         8.5890    4.1387   -2.1936 O.co2     1 ACP        -0.8292
      7 O2B         8.6217    1.5631   -1.5872 O.co2     1 ACP        -0.8292
      8 C3B         7.1827    2.4002   -3.7296 C.3       1 ACP        -0.6453
      9 PA          6.2292    3.5136    0.2496 P.3       1 ACP         1.7996
     10 O1A         6.6927    4.9186    0.5045 O.2       1 ACP        -0.8588
     11 O2A         6.9320    2.3979    1.1869 O.3       1 ACP        -0.8037
     12 O3A         6.5026    2.9775   -1.2516 O.3       1 ACP        -0.7988
     13 O5'         4.6408    3.2691    0.4376 O.3       1 ACP        -0.5960
     14 C5'         4.0922    1.9801    0.2227 C.3       1 ACP         0.1917
     15 C4'         2.5944    2.0310    0.4653 C.3       1 ACP         0.0908
     16 O4'         1.9327    2.5740   -0.6889 O.3       1 ACP        -0.4111
     17 C3'         1.9685    0.6634    0.6767 C.3       1 ACP         0.0927
     18 O3'         2.1425    0.1975    1.9977 O.3       1 ACP        -0.6127
     19 C2'         0.5176    0.9128    0.3099 C.3       1 ACP         0.1095
     20 O2'        -0.2103    1.4454    1.4152 O.3       1 ACP        -0.5953
     21 C1'         0.6219    1.9765   -0.7844 C.3       1 ACP         0.4273
     22 N9          0.4237    1.4496   -2.1357 N.pl3     1 ACP        -0.6934
     23 C8          0.7352    0.1857   -2.5616 C.ar      1 ACP         0.5422
     24 N7          0.4386    0.0025   -3.8312 N.2       1 ACP        -0.5596
     25 C5         -0.0877    1.2002   -4.2458 C.ar      1 ACP        -0.2259
     26 C6         -0.5826    1.6331   -5.4719 C.ar      1 ACP         0.7526
     27 N6         -0.6027    0.7720   -6.5824 N.pl3     1 ACP        -0.9660
     28 N1         -1.0479    2.9006   -5.5841 N.ar      1 ACP        -0.8027
     29 C2         -1.0031    3.6836   -4.4792 C.ar      1 ACP         0.6758
     30 N3         -0.5493    3.3800   -3.2436 N.ar      1 ACP        -0.7221
     31 C4         -0.1057    2.1146   -3.2048 C.ar      1 ACP         0.5858
     32 HOG2        5.2246    3.2233   -6.6628 H         1 ACP         0.4705
     33 HOG3        7.6191    4.7541   -5.3453 H         1 ACP         0.4705
     34 H3B1        6.7360    1.4042   -3.6327 H         1 ACP         0.1189
     35 H3B2        8.0347    2.3024   -4.4120 H         1 ACP         0.1189
     36 HOA2        6.8297    2.4637    2.1603 H         1 ACP         0.4679
     37 H5'1        4.3024    1.6721   -0.8067 H         1 ACP         0.0587
     38 H5'2        4.5673    1.2730    0.9105 H         1 ACP         0.0587
     39 H4'         2.3752    2.7029    1.3156 H         1 ACP         0.0938
     40 H3'         2.4336   -0.1217   -0.0016 H         1 ACP         0.0597
     41 HO3'        3.0987    0.1465    2.1461 H         1 ACP         0.4554
     42 H2'         0.0316    0.0155   -0.0339 H         1 ACP         0.0710
     43 HO2'       -0.1608    0.7921    2.1351 H         1 ACP         0.4360
     44 H1'        -0.1474    2.7798   -0.6651 H         1 ACP         0.1247
     45 H8          1.1731   -0.5535   -1.9047 H         1 ACP         0.0875
     46 HN61       -0.2130   -0.1479   -6.4999 H         1 ACP         0.4433
     47 HN62       -0.9195    1.1179   -7.4683 H         1 ACP         0.4433
     48 H2         -1.3833    4.6919   -4.6052 H         1 ACP         0.0459
@<TRIPOS>BOND
     1    1    2 2
     2    1    3 1
     3    1    4 1
     4    1    8 1
     5    3   32 1
     6    4   33 1
     7    5    6 2
     8    5    7 1
     9    5    8 1
    10    5   12 1
    11    8   34 1
    12    8   35 1
    13    9   10 2
    14    9   11 1
    15    9   12 1
    16    9   13 1
    17   11   36 1
    18   13   14 1
    19   14   15 1
    20   14   37 1
    21   14   38 1
    22   15   16 1
    23   15   17 1
    24   15   39 1
    25   16   21 1
    26   17   18 1
    27   17   19 1
    28   17   40 1
    29   18   41 1
    30   19   20 1
    31   19   21 1
    32   19   42 1
    33   20   43 1
    34   21   22 1
    35   21   44 1
    36   22   23 ar
    37   22   31 ar
    38   23   24 ar
    39   23   45 1
    40   24   25 ar
    41   25   26 ar
    42   25   31 ar
    43   26   27 1
    44   26   28 ar
    45   27   46 1
    46   27   47 1
    47   28   29 ar
    48   29   30 ar
    49   29   48 1
    50   30   31 ar
@<TRIPOS>SUBSTRUCTURE
     1 ACP         1 GROUP 0 A     ****
@<TRIPOS>MOLECULE
[[5-(6-aminopurin-9-yl)-3,4-dihydroxy-tetrahydrofuran-2-yl]methoxy-hydroxy-phosphoryl]oxy-(phosphonomethyl)phosphinate
   48    50     1     0     0
SMALL
USER_CHARGES

@<TRIPOS>ATOM
      1 PG          3.3501    2.7277   -4.9919 P.3       1 ACP         1.6292
      2 O1G         2.5918    3.0090   -3.7297 O.2       1 ACP        -0.8674
      3 O2G         2.5689    1.8343   -6.0881 O.3       1 ACP        -0.7977
      4 O3G         3.8166    4.0306   -5.8253 O.3       1 ACP        -0.7977
      5 PB          6.2762    2.4804   -3.7038 P.3       1 ACP         1.4910
      6 O1B         6.7108    3.7932   -4.3133 O.co2     1 ACP        -0.8292
      7 O2B         7.2417    1.3416   -3.4704 O.co2     1 ACP        -0.8292
      8 C3B         4.8956    1.8239   -4.7450 C.3       1 ACP        -0.6453
      9 PA          5.8506    3.5236   -0.9792 P.3       1 ACP         1.7996
     10 O1A         6.2604    4.9562   -1.1623 O.2       1 ACP        -0.8588
     11 O2A         7.0039    2.5730   -0.3599 O.3       1 ACP        -0.8037
     12 O3A         5.4243    2.7667   -2.3434 O.3       1 ACP        -0.7988
     13 O5'         4.5673    3.2930   -0.0211 O.3       1 ACP        -0.5960
     14 C5'         4.0922    1.9801    0.2227 C.3       1 ACP         0.1917
     15 C4'         2.5944    2.0310    0.4653 C.3       1 ACP         0.0908
     16 O4'         1.9327    2.5740   -0.6889 O.3       1 ACP        -0.4111
     17 C3'         1.9685    0.6634    0.6767 C.3       1 ACP         0.0927
     18 O3'         2.1425    0.1975    1.9977 O.3       1 ACP        -0.6127
     19 C2'         0.5176    0.9128    0.3099 C.3       1 ACP         0.1095
     20 O2'        -0.2103    1.4454    1.4152 O.3       1 ACP        -0.5953
     21 C1'         0.6219    1.9765   -0.7844 C.3       1 ACP         0.4273
     22 N9          0.4237    1.4496   -2.1357 N.pl3     1 ACP        -0.6934
     23 C8          0.7352    0.1857   -2.5616 C.ar      1 ACP         0.5422
     24 N7          0.4386    0.0025   -3.8312 N.2       1 ACP        -0.5596
     25 C5         -0.0877    1.2002   -4.2458 C.ar      1 ACP        -0.2259
     26 C6         -0.5826    1.6331   -5.4719 C.ar      1 ACP         0.7526
     27 N6         -0.6027    0.7720   -6.5824 N.pl3     1 ACP        -0.9660
     28 N1         -1.0479    2.9006   -5.5841 N.ar      1 ACP        -0.8027
     29 C2         -1.0031    3.6836   -4.4792 C.ar      1 ACP         0.6758
     30 N3         -0.5493    3.3800   -3.2436 N.ar      1 ACP        -0.7221
     31 C4         -0.1057    2.1146   -3.2048 C.ar      1 ACP         0.5858
     32 HOG2        3.0177    1.6193   -6.9334 H         1 ACP         0.4705
     33 HOG3        3.1342    4.6529   -6.1559 H         1 ACP         0.4705
     34 H3B1        4.6330    0.8496   -4.3176 H         1 ACP         0.1189
     35 H3B2        5.3278    1.6322   -5.7338 H         1 ACP         0.1189
     36 HOA2        7.8491    2.4735   -0.8478 H         1 ACP         0.4679
     37 H5'1        4.3175    1.3541   -0.6468 H         1 ACP         0.0587
     38 H5'2        4.6079    1.5730    1.0985 H         1 ACP         0.0587
     39 H4'         2.3752    2.7029    1.3156 H         1 ACP         0.0938
     40 H3'         2.4336   -0.1217   -0.0016 H         1 ACP         0.0597
     41 HO3'        1.7160   -0.6716    2.0397 H         1 ACP         0.4554
     42 H2'         0.0316    0.0155   -0.0339 H         1 ACP         0.0710
     43 HO2'       -0.1608    0.7921    2.1351 H         1 ACP         0.4360
     44 H1'        -0.1474    2.7798   -0.6651 H         1 ACP         0.1247
     45 H8          1.1731   -0.5535   -1.9047 H         1 ACP         0.0875
     46 HN61       -0.2130   -0.1479   -6.4999 H         1 ACP         0.4433
     47 HN62       -0.9195    1.1179   -7.4683 H         1 ACP         0.4433
     48 H2         -1.3833    4.6919   -4.6052 H         1 ACP         0.0459
@<TRIPOS>BOND
     1    1    2 2
     2    1    3 1
     3    1    4 1
     4    1    8 1
     5    3   32 1
     6    4   33 1
     7    5    6 2
     8    5    7 1
     9    5    8 1
    10    5   12 1
    11    8   34 1
    12    8   35 1
    13    9   10 2
    14    9   11 1
    15    9   12 1
    16    9   13 1
    17   11   36 1
    18   13   14 1
    19   14   15 1
    20   14   37 1
    21   14   38 1
    22   15   16 1
    23   15   17 1
    24   15   39 1
    25   16   21 1
    26   17   18 1
    27   17   19 1
    28   17   40 1
    29   18   41 1
    30   19   20 1
    31   19   21 1
    32   19   42 1
    33   20   43 1
    34   21   22 1
    35   21   44 1
    36   22   23 ar
    37   22   31 ar
    38   23   24 ar
    39   23   45 1
    40   24   25 ar
    41   25   26 ar
    42   25   31 ar
    43   26   27 1
    44   26   28 ar
    45   27   46 1
    46   27   47 1
    47   28   29 ar
    48   29   30 ar
    49   29   48 1
    50   30   31 ar
@<TRIPOS>SUBSTRUCTURE
     1 ACP         1 GROUP 0 A     ****
@<TRIPOS>MOLECULE
[[5-(6-aminopurin-9-yl)-3,4-dihydroxy-tetrahydrofuran-2-yl]methoxy-hydroxy-phosphoryl]oxy-(phosphonomethyl)phosphinate
   48    50     1     0     0
SMALL
USER_CHARGES

@<TRIPOS>ATOM
      1 PG         -5.0851    4.1420   -0.2657 P.3       1 ACP         1.6292
      2 O1G        -5.2164    3.5313   -1.6285 O.2       1 ACP        -0.8674
      3 O2G        -6.4768    4.4810    0.4815 O.3       1 ACP        -0.7977
      4 O3G        -4.2781    3.2550    0.8167 O.3       1 ACP        -0.7977
      5 PB         -2.4565    5.8938   -0.8180 P.3       1 ACP         1.4910
      6 O1B        -2.0704    7.3446   -0.6458 O.co2     1 ACP        -0.8292
      7 O2B        -2.3523    5.1846   -2.1483 O.co2     1 ACP        -0.8292
      8 C3B        -4.2051    5.7205   -0.2401 C.3       1 ACP        -0.6453
      9 PA         -0.1733    4.7801    0.6785 P.3       1 ACP         1.7996
     10 O1A         0.5701    6.0367    1.0281 O.2       1 ACP        -0.8588
     11 O2A         0.3946    4.0088   -0.6253 O.3       1 ACP        -0.8037
     12 O3A        -1.7399    4.9978    0.3404 O.3       1 ACP        -0.7988
     13 O5'        -0.2069    3.6554    1.8412 O.3       1 ACP        -0.5960
     14 C5'        -0.8811    2.4285    1.6206 C.3       1 ACP         0.1917
     15 C4'        -0.1994    1.3333    2.4288 C.3       1 ACP         0.0908
     16 O4'        -1.1285    0.2356    2.5840 O.3       1 ACP        -0.4111
     17 C3'         1.0324    0.7610    1.7344 C.3       1 ACP         0.0927
     18 O3'         1.9175    0.2377    2.7247 O.3       1 ACP        -0.6127
     19 C2'         0.4468   -0.3802    0.9263 C.3       1 ACP         0.1095
     20 O2'         1.3993   -1.3703    0.5961 O.3       1 ACP        -0.5953
     21 C1'        -0.6159   -0.9100    1.8769 C.3       1 ACP         0.4273
     22 N9         -1.7127   -1.6108    1.2130 N.pl3     1 ACP        -0.6934
     23 C8         -1.6230   -2.3308    0.0513 C.ar      1 ACP         0.5422
     24 N7         -2.7800   -2.8517   -0.3004 N.2       1 ACP        -0.5596
     25 C5         -3.6574   -2.4511    0.6758 C.ar      1 ACP        -0.2259
     26 C6         -5.0170   -2.6775    0.8654 C.ar      1 ACP         0.7526
     27 N6         -5.7504   -3.4510   -0.0504 N.pl3     1 ACP        -0.9660
     28 N1         -5.6292   -2.1415    1.9486 N.ar      1 ACP        -0.8027
     29 C2         -4.8703   -1.4055    2.7961 C.ar      1 ACP         0.6758
     30 N3         -3.5527   -1.1170    2.7199 N.ar      1 ACP        -0.7221
     31 C4         -3.0124   -1.6774    1.6275 C.ar      1 ACP         0.5858
     32 HOG2       -7.1061    3.7520    0.6680 H         1 ACP         0.4705
     33 HOG3       -4.1611    3.6048    1.7256 H         1 ACP         0.4705
     34 H3B1       -4.7919    6.4250   -0.8402 H         1 ACP         0.1189
     35 H3B2       -4.2203    6.0905    0.7914 H         1 ACP         0.1189
     36 HOA2        0.4028    4.4770   -1.4871 H         1 ACP         0.4679
     37 H5'1       -1.9259    2.5372    1.9293 H         1 ACP         0.0587
     38 H5'2       -0.8477    2.1923    0.5521 H         1 ACP         0.0587
     39 H4'         0.0402    1.7079    3.4342 H         1 ACP         0.0938
     40 H3'         1.5907    1.4859    1.1353 H         1 ACP         0.0597
     41 HO3'        2.1521    0.9800    3.3017 H         1 ACP         0.4554
     42 H2'        -0.0017    0.0018    0.0005 H         1 ACP         0.0710
     43 HO2'        1.7495   -1.7243    1.4324 H         1 ACP         0.4360
     44 H1'        -0.1998   -1.6319    2.6178 H         1 ACP         0.1247
     45 H8         -0.6932   -2.4401   -0.4900 H         1 ACP         0.0875
     46 HN61       -5.2973   -3.8032   -0.8723 H         1 ACP         0.4433
     47 HN62       -6.7381   -3.5629    0.0791 H         1 ACP         0.4433
     48 H2         -5.3929   -0.9917    3.6520 H         1 ACP         0.0459
@<TRIPOS>BOND
     1    1    2 2
     2    1    3 1
     3    1    4 1
     4    1    8 1
     5    3   32 1
     6    4   33 1
     7    5    6 2
     8    5    7 1
     9    5    8 1
    10    5   12 1
    11    8   34 1
    12    8   35 1
    13    9   10 2
    14    9   11 1
    15    9   12 1
    16    9   13 1
    17   11   36 1
    18   13   14 1
    19   14   15 1
    20   14   37 1
    21   14   38 1
    22   15   16 1
    23   15   17 1
    24   15   39 1
    25   16   21 1
    26   17   18 1
    27   17   19 1
    28   17   40 1
    29   18   41 1
    30   19   20 1
    31   19   21 1
    32   19   42 1
    33   20   43 1
    34   21   22 1
    35   21   44 1
    36   22   23 ar
    37   22   31 ar
    38   23   24 ar
    39   23   45 1
    40   24   25 ar
    41   25   26 ar
    42   25   31 ar
    43   26   27 1
    44   26   28 ar
    45   27   46 1
    46   27   47 1
    47   28   29 ar
    48   29   30 ar
    49   29   48 1
    50   30   31 ar
@<TRIPOS>SUBSTRUCTURE
     1 ACP         1 GROUP 0 A     ****
@<TRIPOS>MOLECULE
[[5-(6-aminopurin-9-yl)-3,4-dihydroxy-tetrahydrofuran-2-yl]methoxy-hydroxy-phosphoryl]oxy-(phosphonomethyl)phosphinate
   48    50     1     0     0
SMALL
USER_CHARGES

@<TRIPOS>ATOM
      1 PG          7.1108    5.9548    2.0645 P.3       1 ACP         1.6292
      2 O1G         5.7334    5.4210    2.3198 O.2       1 ACP        -0.8674
      3 O2G         7.1856    7.5114    1.6385 O.3       1 ACP        -0.7977
      4 O3G         8.1361    5.8510    3.3086 O.3       1 ACP        -0.7977
      5 PB          8.3785    3.3070    0.7742 P.3       1 ACP         1.4910
      6 O1B         9.2312    3.0583    1.9968 O.co2     1 ACP        -0.8292
      7 O2B         8.8251    2.9104   -0.6139 O.co2     1 ACP        -0.8292
      8 C3B         7.9976    5.1166    0.7313 C.3       1 ACP        -0.6453
      9 PA          6.3383    1.2707    1.3934 P.3       1 ACP         1.7996
     10 O1A         6.8983    0.6915    2.6601 O.2       1 ACP        -0.8588
     11 O2A         6.6824    0.4202    0.0609 O.3       1 ACP        -0.8037
     12 O3A         6.8669    2.7585    1.0432 O.3       1 ACP        -0.7988
     13 O5'         4.7297    1.4430    1.3689 O.3       1 ACP        -0.5960
     14 C5'         4.0922    1.9801    0.2227 C.3       1 ACP         0.1917
     15 C4'         2.5944    2.0310    0.4653 C.3       1 ACP         0.0908
     16 O4'         1.9327    2.5740   -0.6889 O.3       1 ACP        -0.4111
     17 C3'         1.9685    0.6634    0.6767 C.3       1 ACP         0.0927
     18 O3'         2.1425    0.1975    1.9977 O.3       1 ACP        -0.6127
     19 C2'         0.5176    0.9128    0.3099 C.3       1 ACP         0.1095
     20 O2'        -0.2103    1.4454    1.4152 O.3       1 ACP        -0.5953
     21 C1'         0.6219    1.9765   -0.7844 C.3       1 ACP         0.4273
     22 N9          0.4237    1.4496   -2.1357 N.pl3     1 ACP        -0.6934
     23 C8         -0.6990    0.8143   -2.5962 C.ar      1 ACP         0.5422
     24 N7         -0.5842    0.4561   -3.8580 N.2       1 ACP        -0.5596
     25 C5          0.6674    0.8775   -4.2308 C.ar      1 ACP        -0.2259
     26 C6          1.3671    0.7929   -5.4304 C.ar      1 ACP         0.7526
     27 N6          0.7907    0.1795   -6.5558 N.pl3     1 ACP        -0.9660
     28 N1          2.6167    1.3114   -5.5022 N.ar      1 ACP        -0.8027
     29 C2          3.1190    1.8905   -4.3849 C.ar      1 ACP         0.6758
     30 N3          2.5420    2.0322   -3.1717 N.ar      1 ACP        -0.7221
     31 C4          1.3113    1.4986   -3.1725 C.ar      1 ACP         0.5858
     32 HOG2        6.8381    8.1903    2.2553 H         1 ACP         0.4705
     33 HOG3        9.0520    6.1849    3.1989 H         1 ACP         0.4705
     34 H3B1        7.4257    5.2823   -0.1886 H         1 ACP         0.1189
     35 H3B2        8.9602    5.6249    0.6041 H         1 ACP         0.1189
     36 HOA2        6.3789   -0.5107    0.0009 H         1 ACP         0.4679
     37 H5'1        4.4838    2.9857    0.0374 H         1 ACP         0.0587
     38 H5'2        4.3186    1.3449   -0.6398 H         1 ACP         0.0587
     39 H4'         2.3752    2.7029    1.3156 H         1 ACP         0.0938
     40 H3'         2.4336   -0.1217   -0.0016 H         1 ACP         0.0597
     41 HO3'        3.0987    0.1465    2.1461 H         1 ACP         0.4554
     42 H2'         0.0316    0.0155   -0.0339 H         1 ACP         0.0710
     43 HO2'       -0.1608    0.7921    2.1351 H         1 ACP         0.4360
     44 H1'        -0.1474    2.7798   -0.6651 H         1 ACP         0.1247
     45 H8         -1.5636    0.6429   -1.9696 H         1 ACP         0.0875
     46 HN61       -0.1155   -0.2418   -6.4776 H         1 ACP         0.4433
     47 HN62        1.3291    0.0869   -7.3963 H         1 ACP         0.4433
     48 H2          4.1215    2.2946   -4.4783 H         1 ACP         0.0459
@<TRIPOS>BOND
     1    1    2 2
     2    1    3 1
     3    1    4 1
     4    1    8 1
     5    3   32 1
     6    4   33 1
     7    5    6 2
     8    5    7 1
     9    5    8 1
    10    5   12 1
    11    8   34 1
    12    8   35 1
    13    9   10 2
    14    9   11 1
    15    9   12 1
    16    9   13 1
    17   11   36 1
    18   13   14 1
    19   14   15 1
    20   14   37 1
    21   14   38 1
    22   15   16 1
    23   15   17 1
    24   15   39 1
    25   16   21 1
    26   17   18 1
    27   17   19 1
    28   17   40 1
    29   18   41 1
    30   19   20 1
    31   19   21 1
    32   19   42 1
    33   20   43 1
    34   21   22 1
    35   21   44 1
    36   22   23 ar
    37   22   31 ar
    38   23   24 ar
    39   23   45 1
    40   24   25 ar
    41   25   26 ar
    42   25   31 ar
    43   26   27 1
    44   26   28 ar
    45   27   46 1
    46   27   47 1
    47   28   29 ar
    48   29   30 ar
    49   29   48 1
    50   30   31 ar
@<TRIPOS>SUBSTRUCTURE
     1 ACP         1 GROUP 0 A     ****
@<TRIPOS>MOLECULE
[[5-(6-aminopurin-9-yl)-3,4-dihydroxy-tetrahydrofuran-2-yl]methoxy-hydroxy-phosphoryl]oxy-(phosphonomethyl)phosphinate
   48    50     1     0     0
SMALL
USER_CHARGES

@<TRIPOS>ATOM
      1 PG          6.9946    5.8679   -0.5710 P.3       1 ACP         1.6292
      2 O1G         5.6016    5.3225   -0.6685 O.2       1 ACP        -0.8674
      3 O2G         7.9064    5.6873   -1.8923 O.3       1 ACP        -0.7977
      4 O3G         7.0996    7.4475   -0.2490 O.3       1 ACP        -0.7977
      5 PB          8.3785    3.3070    0.7742 P.3       1 ACP         1.4910
      6 O1B         9.2312    3.0583    1.9968 O.co2     1 ACP        -0.8292
      7 O2B         8.8251    2.9104   -0.6139 O.co2     1 ACP        -0.8292
      8 C3B         7.9976    5.1166    0.7313 C.3       1 ACP        -0.6453
      9 PA          6.3383    1.2707    1.3934 P.3       1 ACP         1.7996
     10 O1A         6.8983    0.6915    2.6601 O.2       1 ACP        -0.8588
     11 O2A         6.6824    0.4202    0.0609 O.3       1 ACP        -0.8037
     12 O3A         6.8669    2.7585    1.0432 O.3       1 ACP        -0.7988
     13 O5'         4.7297    1.4430    1.3689 O.3       1 ACP        -0.5960
     14 C5'         4.0922    1.9801    0.2227 C.3       1 ACP         0.1917
     15 C4'         2.5944    2.0310    0.4653 C.3       1 ACP         0.0908
     16 O4'         1.9327    2.5740   -0.6889 O.3       1 ACP        -0.4111
     17 C3'         1.9685    0.6634    0.6767 C.3       1 ACP         0.0927
     18 O3'         2.1425    0.1975    1.9977 O.3       1 ACP        -0.6127
     19 C2'         0.5176    0.9128    0.3099 C.3       1 ACP         0.1095
     20 O2'        -0.2103    1.4454    1.4152 O.3       1 ACP        -0.5953
     21 C1'         0.6219    1.9765   -0.7844 C.3       1 ACP         0.4273
     22 N9          0.4237    1.4496   -2.1357 N.pl3     1 ACP        -0.6934
     23 C8         -0.6990    0.8143   -2.5962 C.ar      1 ACP         0.5422
     24 N7         -0.5842    0.4561   -3.8580 N.2       1 ACP        -0.5596
     25 C5          0.6674    0.8775   -4.2308 C.ar      1 ACP        -0.2259
     26 C6          1.3671    0.7929   -5.4304 C.ar      1 ACP         0.7526
     27 N6          0.7907    0.1795   -6.5558 N.pl3     1 ACP        -0.9660
     28 N1          2.6167    1.3114   -5.5022 N.ar      1 ACP        -0.8027
     29 C2          3.1190    1.8905   -4.3849 C.ar      1 ACP         0.6758
     30 N3          2.5420    2.0322   -3.1717 N.ar      1 ACP        -0.7221
     31 C4          1.3113    1.4986   -3.1725 C.ar      1 ACP         0.5858
     32 HOG2        8.8271    6.0258   -1.8846 H         1 ACP         0.4705
     33 HOG3        6.6951    8.0877   -0.8726 H         1 ACP         0.4705
     34 H3B1        8.9667    5.6283    0.7257 H         1 ACP         0.1189
     35 H3B2        7.5206    5.3476    1.6906 H         1 ACP         0.1189
     36 HOA2        6.3789   -0.5107    0.0009 H         1 ACP         0.4679
     37 H5'1        4.4838    2.9857    0.0374 H         1 ACP         0.0587
     38 H5'2        4.3186    1.3449   -0.6398 H         1 ACP         0.0587
     39 H4'         2.3752    2.7029    1.3156 H         1 ACP         0.0938
     40 H3'         2.4336   -0.1217   -0.0016 H         1 ACP         0.0597
     41 HO3'        3.0987    0.1465    2.1461 H         1 ACP         0.4554
     42 H2'         0.0316    0.0155   -0.0339 H         1 ACP         0.0710
     43 HO2'       -0.1608    0.7921    2.1351 H         1 ACP         0.4360
     44 H1'        -0.1474    2.7798   -0.6651 H         1 ACP         0.1247
     45 H8         -1.5636    0.6429   -1.9696 H         1 ACP         0.0875
     46 HN61       -0.1155   -0.2418   -6.4776 H         1 ACP         0.4433
     47 HN62        1.3291    0.0869   -7.3963 H         1 ACP         0.4433
     48 H2          4.1215    2.2946   -4.4783 H         1 ACP         0.0459
@<TRIPOS>BOND
     1    1    2 2
     2    1    3 1
     3    1    4 1
     4    1    8 1
     5    3   32 1
     6    4   33 1
     7    5    6 2
     8    5    7 1
     9    5    8 1
    10    5   12 1
    11    8   34 1
    12    8   35 1
    13    9   10 2
    14    9   11 1
    15    9   12 1
    16    9   13 1
    17   11   36 1
    18   13   14 1
    19   14   15 1
    20   14   37 1
    21   14   38 1
    22   15   16 1
    23   15   17 1
    24   15   39 1
    25   16   21 1
    26   17   18 1
    27   17   19 1
    28   17   40 1
    29   18   41 1
    30   19   20 1
    31   19   21 1
    32   19   42 1
    33   20   43 1
    34   21   22 1
    35   21   44 1
    36   22   23 ar
    37   22   31 ar
    38   23   24 ar
    39   23   45 1
    40   24   25 ar
    41   25   26 ar
    42   25   31 ar
    43   26   27 1
    44   26   28 ar
    45   27   46 1
    46   27   47 1
    47   28   29 ar
    48   29   30 ar
    49   29   48 1
    50   30   31 ar
@<TRIPOS>SUBSTRUCTURE
     1 ACP         1 GROUP 0 A     ****
@<TRIPOS>MOLECULE
[[5-(6-aminopurin-9-yl)-3,4-dihydroxy-tetrahydrofuran-2-yl]methoxy-hydroxy-phosphoryl]oxy-(phosphonomethyl)phosphinate
   48    50     1     0     0
SMALL
USER_CHARGES

@<TRIPOS>ATOM
      1 PG         -1.4531    6.8448    1.2839 P.3       1 ACP         1.6292
      2 O1G        -2.5108    6.0516    1.9907 O.2       1 ACP        -0.8674
      3 O2G        -1.5824    8.4497    1.4162 O.3       1 ACP        -0.7977
      4 O3G         0.0647    6.5455    1.7493 O.3       1 ACP        -0.7977
      5 PB         -1.0759    4.9176   -1.2512 P.3       1 ACP         1.4910
      6 O1B         0.2805    4.4610   -0.7660 O.co2     1 ACP        -0.8292
      7 O2B        -1.4150    5.0160   -2.7204 O.co2     1 ACP        -0.8292
      8 C3B        -1.3940    6.5790   -0.5028 C.3       1 ACP        -0.6453
      9 PA         -2.5393    2.4968   -0.4201 P.3       1 ACP         1.7996
     10 O1A        -2.8231    1.8710   -1.7548 O.2       1 ACP        -0.8588
     11 O2A        -3.7479    2.3698    0.6478 O.3       1 ACP        -0.8037
     12 O3A        -2.2418    4.0857   -0.4722 O.3       1 ACP        -0.7988
     13 O5'        -1.2435    1.9111    0.3519 O.3       1 ACP        -0.5960
     14 C5'        -0.8811    2.4285    1.6206 C.3       1 ACP         0.1917
     15 C4'        -0.1994    1.3333    2.4288 C.3       1 ACP         0.0908
     16 O4'        -1.1285    0.2356    2.5840 O.3       1 ACP        -0.4111
     17 C3'         1.0324    0.7610    1.7344 C.3       1 ACP         0.0927
     18 O3'         1.9175    0.2377    2.7247 O.3       1 ACP        -0.6127
     19 C2'         0.4468   -0.3802    0.9263 C.3       1 ACP         0.1095
     20 O2'         1.3993   -1.3703    0.5961 O.3       1 ACP        -0.5953
     21 C1'        -0.6159   -0.9100    1.8769 C.3       1 ACP         0.4273
     22 N9         -1.7127   -1.6108    1.2130 N.pl3     1 ACP        -0.6934
     23 C8         -2.1695   -1.3735   -0.0564 C.ar      1 ACP         0.5422
     24 N7         -3.1688   -2.1671   -0.3806 N.2       1 ACP        -0.5596
     25 C5         -3.3683   -2.9522    0.7270 C.ar      1 ACP        -0.2259
     26 C6         -4.2717   -3.9738    1.0025 C.ar      1 ACP         0.7526
     27 N6         -5.2165   -4.3746    0.0423 N.pl3     1 ACP        -0.9660
     28 N1         -4.2302   -4.5815    2.2126 N.ar      1 ACP        -0.8027
     29 C2         -3.2974   -4.1522    3.0967 C.ar      1 ACP         0.6758
     30 N3         -2.3737   -3.1778    2.9472 N.ar      1 ACP        -0.7221
     31 C4         -2.4717   -2.6214    1.7306 C.ar      1 ACP         0.5858
     32 HOG2       -0.9170    9.0184    0.9735 H         1 ACP         0.4705
     33 HOG3        0.3141    6.7001    2.6853 H         1 ACP         0.4705
     34 H3B1       -2.3554    6.9133   -0.9090 H         1 ACP         0.1189
     35 H3B2       -0.6262    7.2461   -0.9108 H         1 ACP         0.1189
     36 HOA2       -4.0551    1.4766    0.9123 H         1 ACP         0.4679
     37 H5'1       -0.2031    3.2762    1.4777 H         1 ACP         0.0587
     38 H5'2       -1.7839    2.7764    2.1331 H         1 ACP         0.0587
     39 H4'         0.0402    1.7079    3.4342 H         1 ACP         0.0938
     40 H3'         1.5907    1.4859    1.1353 H         1 ACP         0.0597
     41 HO3'        2.6839   -0.1150    2.2479 H         1 ACP         0.4554
     42 H2'        -0.0017    0.0018    0.0005 H         1 ACP         0.0710
     43 HO2'        2.0953   -0.9375    0.0709 H         1 ACP         0.4360
     44 H1'        -0.1998   -1.6319    2.6178 H         1 ACP         0.1247
     45 H8         -1.7364   -0.6145   -0.6934 H         1 ACP         0.0875
     46 HN61       -5.2686   -3.8865   -0.8317 H         1 ACP         0.4433
     47 HN62       -5.8889   -5.0800    0.2773 H         1 ACP         0.4433
     48 H2         -3.2930   -4.6606    4.0551 H         1 ACP         0.0459
@<TRIPOS>BOND
     1    1    2 2
     2    1    3 1
     3    1    4 1
     4    1    8 1
     5    3   32 1
     6    4   33 1
     7    5    6 2
     8    5    7 1
     9    5    8 1
    10    5   12 1
    11    8   34 1
    12    8   35 1
    13    9   10 2
    14    9   11 1
    15    9   12 1
    16    9   13 1
    17   11   36 1
    18   13   14 1
    19   14   15 1
    20   14   37 1
    21   14   38 1
    22   15   16 1
    23   15   17 1
    24   15   39 1
    25   16   21 1
    26   17   18 1
    27   17   19 1
    28   17   40 1
    29   18   41 1
    30   19   20 1
    31   19   21 1
    32   19   42 1
    33   20   43 1
    34   21   22 1
    35   21   44 1
    36   22   23 ar
    37   22   31 ar
    38   23   24 ar
    39   23   45 1
    40   24   25 ar
    41   25   26 ar
    42   25   31 ar
    43   26   27 1
    44   26   28 ar
    45   27   46 1
    46   27   47 1
    47   28   29 ar
    48   29   30 ar
    49   29   48 1
    50   30   31 ar
@<TRIPOS>SUBSTRUCTURE
     1 ACP         1 GROUP 0 A     ****
@<TRIPOS>MOLECULE
[[5-(6-aminopurin-9-yl)-3,4-dihydroxy-tetrahydrofuran-2-yl]methoxy-hydroxy-phosphoryl]oxy-(phosphonomethyl)phosphinate
   48    50     1     0     0
SMALL
USER_CHARGES

@<TRIPOS>ATOM
      1 PG         -4.6509    3.5366   -0.5018 P.3       1 ACP         1.6292
      2 O1G        -4.8824    2.5045    0.5606 O.2       1 ACP        -0.8674
      3 O2G        -3.3771    3.2745   -1.4603 O.3       1 ACP        -0.7977
      4 O3G        -5.8708    3.7489   -1.5394 O.3       1 ACP        -0.7977
      5 PB         -2.9443    5.6052    1.2563 P.3       1 ACP         1.4910
      6 O1B        -3.1080    4.7619    2.4995 O.co2     1 ACP        -0.8292
      7 O2B        -2.8316    7.1110    1.3132 O.co2     1 ACP        -0.8292
      8 C3B        -4.3573    5.2033    0.1323 C.3       1 ACP        -0.6453
      9 PA         -0.1733    4.7801    0.6785 P.3       1 ACP         1.7996
     10 O1A         0.5701    6.0367    1.0281 O.2       1 ACP        -0.8588
     11 O2A         0.3946    4.0088   -0.6253 O.3       1 ACP        -0.8037
     12 O3A        -1.7399    4.9978    0.3404 O.3       1 ACP        -0.7988
     13 O5'        -0.2069    3.6554    1.8412 O.3       1 ACP        -0.5960
     14 C5'        -0.8811    2.4285    1.6206 C.3       1 ACP         0.1917
     15 C4'        -0.1994    1.3333    2.4288 C.3       1 ACP         0.0908
     16 O4'        -1.1285    0.2356    2.5840 O.3       1 ACP        -0.4111
     17 C3'         1.0324    0.7610    1.7344 C.3       1 ACP         0.0927
     18 O3'         1.9175    0.2377    2.7247 O.3       1 ACP        -0.6127
     19 C2'         0.4468   -0.3802    0.9263 C.3       1 ACP         0.1095
     20 O2'         1.3993   -1.3703    0.5961 O.3       1 ACP        -0.5953
     21 C1'        -0.6159   -0.9100    1.8769 C.3       1 ACP         0.4273
     22 N9         -1.7127   -1.6108    1.2130 N.pl3     1 ACP        -0.6934
     23 C8         -2.1695   -1.3735   -0.0564 C.ar      1 ACP         0.5422
     24 N7         -3.1688   -2.1671   -0.3806 N.2       1 ACP        -0.5596
     25 C5         -3.3683   -2.9522    0.7270 C.ar      1 ACP        -0.2259
     26 C6         -4.2717   -3.9738    1.0025 C.ar      1 ACP         0.7526
     27 N6         -5.2165   -4.3746    0.0423 N.pl3     1 ACP        -0.9660
     28 N1         -4.2302   -4.5815    2.2126 N.ar      1 ACP        -0.8027
     29 C2         -3.2974   -4.1522    3.0967 C.ar      1 ACP         0.6758
     30 N3         -2.3737   -3.1778    2.9472 N.ar      1 ACP        -0.7221
     31 C4         -2.4717   -2.6214    1.7306 C.ar      1 ACP         0.5858
     32 HOG2       -2.4834    3.2216   -1.0593 H         1 ACP         0.4705
     33 HOG3       -6.1698    2.9894   -2.0835 H         1 ACP         0.4705
     34 H3B1       -4.2483    5.8627   -0.7362 H         1 ACP         0.1189
     35 H3B2       -5.2634    5.5200    0.6613 H         1 ACP         0.1189
     36 HOA2        0.4028    4.4770   -1.4871 H         1 ACP         0.4679
     37 H5'1       -1.9259    2.5372    1.9293 H         1 ACP         0.0587
     38 H5'2       -0.8477    2.1923    0.5521 H         1 ACP         0.0587
     39 H4'         0.0402    1.7079    3.4342 H         1 ACP         0.0938
     40 H3'         1.5907    1.4859    1.1353 H         1 ACP         0.0597
     41 HO3'        2.6839   -0.1150    2.2479 H         1 ACP         0.4554
     42 H2'        -0.0017    0.0018    0.0005 H         1 ACP         0.0710
     43 HO2'        0.9369   -2.0558    0.0825 H         1 ACP         0.4360
     44 H1'        -0.1998   -1.6319    2.6178 H         1 ACP         0.1247
     45 H8         -1.7364   -0.6145   -0.6934 H         1 ACP         0.0875
     46 HN61       -5.2686   -3.8865   -0.8317 H         1 ACP         0.4433
     47 HN62       -5.8889   -5.0800    0.2773 H         1 ACP         0.4433
     48 H2         -3.2930   -4.6606    4.0551 H         1 ACP         0.0459
@<TRIPOS>BOND
     1    1    2 2
     2    1    3 1
     3    1    4 1
     4    1    8 1
     5    3   32 1
     6    4   33 1
     7    5    6 2
     8    5    7 1
     9    5    8 1
    10    5   12 1
    11    8   34 1
    12    8   35 1
    13    9   10 2
    14    9   11 1
    15    9   12 1
    16    9   13 1
    17   11   36 1
    18   13   14 1
    19   14   15 1
    20   14   37 1
    21   14   38 1
    22   15   16 1
    23   15   17 1
    24   15   39 1
    25   16   21 1
    26   17   18 1
    27   17   19 1
    28   17   40 1
    29   18   41 1
    30   19   20 1
    31   19   21 1
    32   19   42 1
    33   20   43 1
    34   21   22 1
    35   21   44 1
    36   22   23 ar
    37   22   31 ar
    38   23   24 ar
    39   23   45 1
    40   24   25 ar
    41   25   26 ar
    42   25   31 ar
    43   26   27 1
    44   26   28 ar
    45   27   46 1
    46   27   47 1
    47   28   29 ar
    48   29   30 ar
    49   29   48 1
    50   30   31 ar
@<TRIPOS>SUBSTRUCTURE
     1 ACP         1 GROUP 0 A     ****
@<TRIPOS>MOLECULE
[[5-(6-aminopurin-9-yl)-3,4-dihydroxy-tetrahydrofuran-2-yl]methoxy-hydroxy-phosphoryl]oxy-(phosphonomethyl)phosphinate
   48    50     1     0     0
SMALL
USER_CHARGES

@<TRIPOS>ATOM
      1 PG         -1.2680   -0.6329   -7.5915 P.3       1 ACP         1.6292
      2 O1G        -0.2496   -1.4916   -6.9038 O.2       1 ACP        -0.8674
      3 O2G        -0.7767    0.0658   -8.9628 O.3       1 ACP        -0.7977
      4 O3G        -2.6349   -1.3827   -8.0148 O.3       1 ACP        -0.7977
      5 PB         -0.7217    2.0816   -5.9741 P.3       1 ACP         1.4910
      6 O1B        -1.5673    3.0645   -5.1979 O.co2     1 ACP        -0.8292
      7 O2B         0.1532    2.5082   -7.1299 O.co2     1 ACP        -0.8292
      8 C3B        -1.8547    0.7614   -6.6024 C.3       1 ACP        -0.6453
      9 PA          1.2447    1.5969   -3.8314 P.3       1 ACP         1.7996
     10 O1A         2.4439    2.3084   -4.3878 O.2       1 ACP        -0.8588
     11 O2A         1.5839    0.2084   -3.0736 O.3       1 ACP        -0.8037
     12 O3A         0.1441    1.1693   -4.9366 O.3       1 ACP        -0.7988
     13 O5'         0.3749    2.4474   -2.7646 O.3       1 ACP        -0.5960
     14 C5'        -0.7794    1.8744   -2.1748 C.3       1 ACP         0.1917
     15 C4'        -0.9699    2.4597   -0.7819 C.3       1 ACP         0.0908
     16 O4'        -2.1475    1.8640   -0.2014 O.3       1 ACP        -0.4111
     17 C3'         0.1697    2.1347    0.1695 C.3       1 ACP         0.0927
     18 O3'         0.1809    3.0982    1.2223 O.3       1 ACP        -0.6127
     19 C2'        -0.2543    0.7880    0.7187 C.3       1 ACP         0.1095
     20 O2'         0.3606    0.4944    1.9582 O.3       1 ACP        -0.5953
     21 C1'        -1.7682    0.9516    0.8548 C.3       1 ACP         0.4273
     22 N9         -2.5926   -0.2553    0.7436 N.pl3     1 ACP        -0.6934
     23 C8         -3.8700   -0.3163    0.2529 C.ar      1 ACP         0.5422
     24 N7         -4.3522   -1.5414    0.2751 N.2       1 ACP        -0.5596
     25 C5         -3.3434   -2.3070    0.8036 C.ar      1 ACP        -0.2259
     26 C6         -3.2433   -3.6673    1.0777 C.ar      1 ACP         0.7526
     27 N6         -4.3152   -4.5349    0.8066 N.pl3     1 ACP        -0.9660
     28 N1         -2.0949   -4.1491    1.6112 N.ar      1 ACP        -0.8027
     29 C2         -1.0966   -3.2647    1.8500 C.ar      1 ACP         0.6758
     30 N3         -1.0746   -1.9321    1.6291 N.ar      1 ACP        -0.7221
     31 C4         -2.2390   -1.5249    1.1020 C.ar      1 ACP         0.5858
     32 HOG2       -0.0101    0.6772   -8.9367 H         1 ACP         0.4705
     33 HOG3       -2.5882   -2.1429   -8.6330 H         1 ACP         0.4705
     34 H3B1       -2.6184    1.2770   -7.1955 H         1 ACP         0.1189
     35 H3B2       -2.3593    0.3514   -5.7201 H         1 ACP         0.1189
     36 HOA2        2.0222   -0.5111   -3.5759 H         1 ACP         0.4679
     37 H5'1       -1.6471    2.0964   -2.8045 H         1 ACP         0.0587
     38 H5'2       -0.6478    0.7889   -2.1188 H         1 ACP         0.0587
     39 H4'        -1.1469    3.5409   -0.8523 H         1 ACP         0.0938
     40 H3'         1.1601    2.1310   -0.2934 H         1 ACP         0.0597
     41 HO3'        0.3098    3.9616    0.8017 H         1 ACP         0.4554
     42 H2'        -0.0024   -0.0091    0.0062 H         1 ACP         0.0710
     43 HO2'        1.3225    0.4909    1.8095 H         1 ACP         0.4360
     44 H1'        -2.0584    1.4255    1.8301 H         1 ACP         0.1247
     45 H8         -4.3937    0.5597   -0.1045 H         1 ACP         0.0875
     46 HN61       -5.1761   -4.1600    0.4557 H         1 ACP         0.4433
     47 HN62       -4.2402   -5.5032    1.0550 H         1 ACP         0.4433
     48 H2         -0.1923   -3.6849    2.2775 H         1 ACP         0.0459
@<TRIPOS>BOND
     1    1    2 2
     2    1    3 1
     3    1    4 1
     4    1    8 1
     5    3   32 1
     6    4   33 1
     7    5    6 2
     8    5    7 1
     9    5    8 1
    10    5   12 1
    11    8   34 1
    12    8   35 1
    13    9   10 2
    14    9   11 1
    15    9   12 1
    16    9   13 1
    17   11   36 1
    18   13   14 1
    19   14   15 1
    20   14   37 1
    21   14   38 1
    22   15   16 1
    23   15   17 1
    24   15   39 1
    25   16   21 1
    26   17   18 1
    27   17   19 1
    28   17   40 1
    29   18   41 1
    30   19   20 1
    31   19   21 1
    32   19   42 1
    33   20   43 1
    34   21   22 1
    35   21   44 1
    36   22   23 ar
    37   22   31 ar
    38   23   24 ar
    39   23   45 1
    40   24   25 ar
    41   25   26 ar
    42   25   31 ar
    43   26   27 1
    44   26   28 ar
    45   27   46 1
    46   27   47 1
    47   28   29 ar
    48   29   30 ar
    49   29   48 1
    50   30   31 ar
@<TRIPOS>SUBSTRUCTURE
     1 ACP         1 GROUP 0 A     ****
@<TRIPOS>MOLECULE
[[5-(6-aminopurin-9-yl)-3,4-dihydroxy-tetrahydrofuran-2-yl]methoxy-hydroxy-phosphoryl]oxy-(phosphonomethyl)phosphinate
   48    50     1     0     0
SMALL
USER_CHARGES

@<TRIPOS>ATOM
      1 PG         -5.0851    4.1420   -0.2657 P.3       1 ACP         1.6292
      2 O1G        -4.4467    3.0666    0.5608 O.2       1 ACP        -0.8674
      3 O2G        -5.2212    3.8188   -1.8428 O.3       1 ACP        -0.7977
      4 O3G        -6.5858    4.5521    0.1697 O.3       1 ACP        -0.7977
      5 PB         -2.4565    5.8938   -0.8180 P.3       1 ACP         1.4910
      6 O1B        -2.0704    7.3446   -0.6458 O.co2     1 ACP        -0.8292
      7 O2B        -2.3523    5.1846   -2.1483 O.co2     1 ACP        -0.8292
      8 C3B        -4.2051    5.7205   -0.2401 C.3       1 ACP        -0.6453
      9 PA         -0.1733    4.7801    0.6785 P.3       1 ACP         1.7996
     10 O1A         0.5701    6.0367    1.0281 O.2       1 ACP        -0.8588
     11 O2A         0.3946    4.0088   -0.6253 O.3       1 ACP        -0.8037
     12 O3A        -1.7399    4.9978    0.3404 O.3       1 ACP        -0.7988
     13 O5'        -0.2069    3.6554    1.8412 O.3       1 ACP        -0.5960
     14 C5'        -0.8811    2.4285    1.6206 C.3       1 ACP         0.1917
     15 C4'        -0.1994    1.3333    2.4288 C.3       1 ACP         0.0908
     16 O4'        -1.1285    0.2356    2.5840 O.3       1 ACP        -0.4111
     17 C3'         1.0324    0.7610    1.7344 C.3       1 ACP         0.0927
     18 O3'         1.9175    0.2377    2.7247 O.3       1 ACP        -0.6127
     19 C2'         0.4468   -0.3802    0.9263 C.3       1 ACP         0.1095
     20 O2'         1.3993   -1.3703    0.5961 O.3       1 ACP        -0.5953
     21 C1'        -0.6159   -0.9100    1.8769 C.3       1 ACP         0.4273
     22 N9         -1.7127   -1.6108    1.2130 N.pl3     1 ACP        -0.6934
     23 C8         -2.1695   -1.3735   -0.0564 C.ar      1 ACP         0.5422
     24 N7         -3.1688   -2.1671   -0.3806 N.2       1 ACP        -0.5596
     25 C5         -3.3683   -2.9522    0.7270 C.ar      1 ACP        -0.2259
     26 C6         -4.2717   -3.9738    1.0025 C.ar      1 ACP         0.7526
     27 N6         -5.2165   -4.3746    0.0423 N.pl3     1 ACP        -0.9660
     28 N1         -4.2302   -4.5815    2.2126 N.ar      1 ACP        -0.8027
     29 C2         -3.2974   -4.1522    3.0967 C.ar      1 ACP         0.6758
     30 N3         -2.3737   -3.1778    2.9472 N.ar      1 ACP        -0.7221
     31 C4         -2.4717   -2.6214    1.7306 C.ar      1 ACP         0.5858
     32 HOG2       -5.6316    4.4875   -2.4315 H         1 ACP         0.4705
     33 HOG3       -7.2886    3.8679    0.1553 H         1 ACP         0.4705
     34 H3B1       -4.7919    6.4250   -0.8402 H         1 ACP         0.1189
     35 H3B2       -4.2203    6.0905    0.7914 H         1 ACP         0.1189
     36 HOA2        0.4028    4.4770   -1.4871 H         1 ACP         0.4679
     37 H5'1       -1.9259    2.5372    1.9293 H         1 ACP         0.0587
     38 H5'2       -0.8477    2.1923    0.5521 H         1 ACP         0.0587
     39 H4'         0.0402    1.7079    3.4342 H         1 ACP         0.0938
     40 H3'         1.5907    1.4859    1.1353 H         1 ACP         0.0597
     41 HO3'        2.1521    0.9800    3.3017 H         1 ACP         0.4554
     42 H2'        -0.0017    0.0018    0.0005 H         1 ACP         0.0710
     43 HO2'        0.9369   -2.0558    0.0825 H         1 ACP         0.4360
     44 H1'        -0.1998   -1.6319    2.6178 H         1 ACP         0.1247
     45 H8         -1.7364   -0.6145   -0.6934 H         1 ACP         0.0875
     46 HN61       -5.2686   -3.8865   -0.8317 H         1 ACP         0.4433
     47 HN62       -5.8889   -5.0800    0.2773 H         1 ACP         0.4433
     48 H2         -3.2930   -4.6606    4.0551 H         1 ACP         0.0459
@<TRIPOS>BOND
     1    1    2 2
     2    1    3 1
     3    1    4 1
     4    1    8 1
     5    3   32 1
     6    4   33 1
     7    5    6 2
     8    5    7 1
     9    5    8 1
    10    5   12 1
    11    8   34 1
    12    8   35 1
    13    9   10 2
    14    9   11 1
    15    9   12 1
    16    9   13 1
    17   11   36 1
    18   13   14 1
    19   14   15 1
    20   14   37 1
    21   14   38 1
    22   15   16 1
    23   15   17 1
    24   15   39 1
    25   16   21 1
    26   17   18 1
    27   17   19 1
    28   17   40 1
    29   18   41 1
    30   19   20 1
    31   19   21 1
    32   19   42 1
    33   20   43 1
    34   21   22 1
    35   21   44 1
    36   22   23 ar
    37   22   31 ar
    38   23   24 ar
    39   23   45 1
    40   24   25 ar
    41   25   26 ar
    42   25   31 ar
    43   26   27 1
    44   26   28 ar
    45   27   46 1
    46   27   47 1
    47   28   29 ar
    48   29   30 ar
    49   29   48 1
    50   30   31 ar
@<TRIPOS>SUBSTRUCTURE
     1 ACP         1 GROUP 0 A     ****
@<TRIPOS>MOLECULE
[[5-(6-aminopurin-9-yl)-3,4-dihydroxy-tetrahydrofuran-2-yl]methoxy-hydroxy-phosphoryl]oxy-(phosphonomethyl)phosphinate
   48    50     1     0     0
SMALL
USER_CHARGES

@<TRIPOS>ATOM
      1 PG          7.8930   -0.5960   -1.5340 P.3       1 ACP         1.6292
      2 O1G         6.4074   -0.5601   -1.3365 O.2       1 ACP        -0.8674
      3 O2G         8.7335   -1.3190   -0.3589 O.3       1 ACP        -0.7977
      4 O3G         8.3961   -1.3415   -2.8759 O.3       1 ACP        -0.7977
      5 PB          8.5731    2.2823   -0.2947 P.3       1 ACP         1.4910
      6 O1B         9.3296    3.5056   -0.7580 O.co2     1 ACP        -0.8292
      7 O2B         8.9090    1.5672    0.9935 O.co2     1 ACP        -0.8292
      8 C3B         8.6664    1.0330   -1.6555 C.3       1 ACP        -0.6453
      9 PA          6.0788    3.6958    0.3928 P.3       1 ACP         1.7996
     10 O1A         6.4678    5.1128    0.0855 O.2       1 ACP        -0.8588
     11 O2A         6.1996    3.2939    1.9553 O.3       1 ACP        -0.8037
     12 O3A         6.9706    2.5756   -0.3591 O.3       1 ACP        -0.7988
     13 O5'         4.5673    3.2930   -0.0211 O.3       1 ACP        -0.5960
     14 C5'         4.0922    1.9801    0.2227 C.3       1 ACP         0.1917
     15 C4'         2.5944    2.0310    0.4653 C.3       1 ACP         0.0908
     16 O4'         1.9327    2.5740   -0.6889 O.3       1 ACP        -0.4111
     17 C3'         1.9685    0.6634    0.6767 C.3       1 ACP         0.0927
     18 O3'         2.1425    0.1975    1.9977 O.3       1 ACP        -0.6127
     19 C2'         0.5176    0.9128    0.3099 C.3       1 ACP         0.1095
     20 O2'        -0.2103    1.4454    1.4152 O.3       1 ACP        -0.5953
     21 C1'         0.6219    1.9765   -0.7844 C.3       1 ACP         0.4273
     22 N9          0.4237    1.4496   -2.1357 N.pl3     1 ACP        -0.6934
     23 C8          0.7352    0.1857   -2.5616 C.ar      1 ACP         0.5422
     24 N7          0.4386    0.0025   -3.8312 N.2       1 ACP        -0.5596
     25 C5         -0.0877    1.2002   -4.2458 C.ar      1 ACP        -0.2259
     26 C6         -0.5826    1.6331   -5.4719 C.ar      1 ACP         0.7526
     27 N6         -0.6027    0.7720   -6.5824 N.pl3     1 ACP        -0.9660
     28 N1         -1.0479    2.9006   -5.5841 N.ar      1 ACP        -0.8027
     29 C2         -1.0031    3.6836   -4.4792 C.ar      1 ACP         0.6758
     30 N3         -0.5493    3.3800   -3.2436 N.ar      1 ACP        -0.7221
     31 C4         -0.1057    2.1146   -3.2048 C.ar      1 ACP         0.5858
     32 HOG2        9.7100   -1.3714   -0.4360 H         1 ACP         0.4705
     33 HOG3        8.1706   -2.2871   -3.0074 H         1 ACP         0.4705
     34 H3B1        9.7339    0.8685   -1.8408 H         1 ACP         0.1189
     35 H3B2        8.2605    1.5258   -2.5463 H         1 ACP         0.1189
     36 HOA2        5.6689    3.7896    2.6148 H         1 ACP         0.4679
     37 H5'1        4.3175    1.3541   -0.6468 H         1 ACP         0.0587
     38 H5'2        4.6079    1.5730    1.0985 H         1 ACP         0.0587
     39 H4'         2.3752    2.7029    1.3156 H         1 ACP         0.0938
     40 H3'         2.4336   -0.1217   -0.0016 H         1 ACP         0.0597
     41 HO3'        1.7160   -0.6716    2.0397 H         1 ACP         0.4554
     42 H2'         0.0316    0.0155   -0.0339 H         1 ACP         0.0710
     43 HO2'       -0.1608    0.7921    2.1351 H         1 ACP         0.4360
     44 H1'        -0.1474    2.7798   -0.6651 H         1 ACP         0.1247
     45 H8          1.1731   -0.5535   -1.9047 H         1 ACP         0.0875
     46 HN61       -0.2130   -0.1479   -6.4999 H         1 ACP         0.4433
     47 HN62       -0.9195    1.1179   -7.4683 H         1 ACP         0.4433
     48 H2         -1.3833    4.6919   -4.6052 H         1 ACP         0.0459
@<TRIPOS>BOND
     1    1    2 2
     2    1    3 1
     3    1    4 1
     4    1    8 1
     5    3   32 1
     6    4   33 1
     7    5    6 2
     8    5    7 1
     9    5    8 1
    10    5   12 1
    11    8   34 1
    12    8   35 1
    13    9   10 2
    14    9   11 1
    15    9   12 1
    16    9   13 1
    17   11   36 1
    18   13   14 1
    19   14   15 1
    20   14   37 1
    21   14   38 1
    22   15   16 1
    23   15   17 1
    24   15   39 1
    25   16   21 1
    26   17   18 1
    27   17   19 1
    28   17   40 1
    29   18   41 1
    30   19   20 1
    31   19   21 1
    32   19   42 1
    33   20   43 1
    34   21   22 1
    35   21   44 1
    36   22   23 ar
    37   22   31 ar
    38   23   24 ar
    39   23   45 1
    40   24   25 ar
    41   25   26 ar
    42   25   31 ar
    43   26   27 1
    44   26   28 ar
    45   27   46 1
    46   27   47 1
    47   28   29 ar
    48   29   30 ar
    49   29   48 1
    50   30   31 ar
@<TRIPOS>SUBSTRUCTURE
     1 ACP         1 GROUP 0 A     ****
@<TRIPOS>MOLECULE
[[5-(6-aminopurin-9-yl)-3,4-dihydroxy-tetrahydrofuran-2-yl]methoxy-hydroxy-phosphoryl]oxy-(phosphonomethyl)phosphinate
   48    50     1     0     0
SMALL
USER_CHARGES

@<TRIPOS>ATOM
      1 PG          1.2824    6.1741    0.5098 P.3       1 ACP         1.6292
      2 O1G         1.2665    5.1770   -0.6096 O.2       1 ACP        -0.8674
      3 O2G         1.6477    5.5786    1.9665 O.3       1 ACP        -0.7977
      4 O3G         2.3171    7.4016    0.3300 O.3       1 ACP        -0.7977
      5 PB         -1.8430    6.0887    1.2221 P.3       1 ACP         1.4910
      6 O1B        -2.1263    5.1276    0.0908 O.co2     1 ACP        -0.8292
      7 O2B        -2.8558    7.1105    1.6841 O.co2     1 ACP        -0.8292
      8 C3B        -0.2976    7.0069    0.7862 C.3       1 ACP        -0.6453
      9 PA         -1.9391    4.0774    3.3757 P.3       1 ACP         1.7996
     10 O1A        -3.2310    4.4475    4.0450 O.2       1 ACP        -0.8588
     11 O2A        -0.7613    3.6379    4.3940 O.3       1 ACP        -0.8037
     12 O3A        -1.2682    5.2646    2.5062 O.3       1 ACP        -0.7988
     13 O5'        -2.0397    2.8622    2.3121 O.3       1 ACP        -0.5960
     14 C5'        -0.8811    2.4285    1.6206 C.3       1 ACP         0.1917
     15 C4'        -0.1994    1.3333    2.4288 C.3       1 ACP         0.0908
     16 O4'        -1.1285    0.2356    2.5840 O.3       1 ACP        -0.4111
     17 C3'         1.0324    0.7610    1.7344 C.3       1 ACP         0.0927
     18 O3'         1.9175    0.2377    2.7247 O.3       1 ACP        -0.6127
     19 C2'         0.4468   -0.3802    0.9263 C.3       1 ACP         0.1095
     20 O2'         1.3993   -1.3703    0.5961 O.3       1 ACP        -0.5953
     21 C1'        -0.6159   -0.9100    1.8769 C.3       1 ACP         0.4273
     22 N9         -1.7127   -1.6108    1.2130 N.pl3     1 ACP        -0.6934
     23 C8         -1.6230   -2.3308    0.0513 C.ar      1 ACP         0.5422
     24 N7         -2.7800   -2.8517   -0.3004 N.2       1 ACP        -0.5596
     25 C5         -3.6574   -2.4511    0.6758 C.ar      1 ACP        -0.2259
     26 C6         -5.0170   -2.6775    0.8654 C.ar      1 ACP         0.7526
     27 N6         -5.7504   -3.4510   -0.0504 N.pl3     1 ACP        -0.9660
     28 N1         -5.6292   -2.1415    1.9486 N.ar      1 ACP        -0.8027
     29 C2         -4.8703   -1.4055    2.7961 C.ar      1 ACP         0.6758
     30 N3         -3.5527   -1.1170    2.7199 N.ar      1 ACP        -0.7221
     31 C4         -3.0124   -1.6774    1.6275 C.ar      1 ACP         0.5858
     32 HOG2        1.0761    4.8807    2.3518 H         1 ACP         0.4705
     33 HOG3        3.2748    7.2074    0.2435 H         1 ACP         0.4705
     34 H3B1       -0.1412    7.7330    1.5919 H         1 ACP         0.1189
     35 H3B2       -0.5317    7.5799   -0.1183 H         1 ACP         0.1189
     36 HOA2       -0.4545    4.2797    5.0694 H         1 ACP         0.4679
     37 H5'1       -1.1760    2.0499    0.6365 H         1 ACP         0.0587
     38 H5'2       -0.2073    3.2811    1.4873 H         1 ACP         0.0587
     39 H4'         0.0402    1.7079    3.4342 H         1 ACP         0.0938
     40 H3'         1.5907    1.4859    1.1353 H         1 ACP         0.0597
     41 HO3'        2.6839   -0.1150    2.2479 H         1 ACP         0.4554
     42 H2'        -0.0017    0.0018    0.0005 H         1 ACP         0.0710
     43 HO2'        2.0953   -0.9375    0.0709 H         1 ACP         0.4360
     44 H1'        -0.1998   -1.6319    2.6178 H         1 ACP         0.1247
     45 H8         -0.6932   -2.4401   -0.4900 H         1 ACP         0.0875
     46 HN61       -5.2972   -3.8032   -0.8723 H         1 ACP         0.4433
     47 HN62       -6.7381   -3.5629    0.0791 H         1 ACP         0.4433
     48 H2         -5.3929   -0.9917    3.6520 H         1 ACP         0.0459
@<TRIPOS>BOND
     1    1    2 2
     2    1    3 1
     3    1    4 1
     4    1    8 1
     5    3   32 1
     6    4   33 1
     7    5    6 2
     8    5    7 1
     9    5    8 1
    10    5   12 1
    11    8   34 1
    12    8   35 1
    13    9   10 2
    14    9   11 1
    15    9   12 1
    16    9   13 1
    17   11   36 1
    18   13   14 1
    19   14   15 1
    20   14   37 1
    21   14   38 1
    22   15   16 1
    23   15   17 1
    24   15   39 1
    25   16   21 1
    26   17   18 1
    27   17   19 1
    28   17   40 1
    29   18   41 1
    30   19   20 1
    31   19   21 1
    32   19   42 1
    33   20   43 1
    34   21   22 1
    35   21   44 1
    36   22   23 ar
    37   22   31 ar
    38   23   24 ar
    39   23   45 1
    40   24   25 ar
    41   25   26 ar
    42   25   31 ar
    43   26   27 1
    44   26   28 ar
    45   27   46 1
    46   27   47 1
    47   28   29 ar
    48   29   30 ar
    49   29   48 1
    50   30   31 ar
@<TRIPOS>SUBSTRUCTURE
     1 ACP         1 GROUP 0 A     ****
@<TRIPOS>MOLECULE
[[5-(6-aminopurin-9-yl)-3,4-dihydroxy-tetrahydrofuran-2-yl]methoxy-hydroxy-phosphoryl]oxy-(phosphonomethyl)phosphinate
   48    50     1     0     0
SMALL
USER_CHARGES

@<TRIPOS>ATOM
      1 PG          9.1001    5.2581    0.0160 P.3       1 ACP         1.6292
      2 O1G        10.1139    5.5094    1.0913 O.2       1 ACP        -0.8674
      3 O2G         9.1095    6.3116   -1.2088 O.3       1 ACP        -0.7977
      4 O3G         9.2078    3.8221   -0.7163 O.3       1 ACP        -0.7977
      5 PB          6.7407    4.1500    1.8836 P.3       1 ACP         1.4910
      6 O1B         5.2816    4.4838    2.0918 O.co2     1 ACP        -0.8292
      7 O2B         7.7376    4.1518    3.0192 O.co2     1 ACP        -0.8292
      8 C3B         7.3856    5.2999    0.5862 C.3       1 ACP        -0.6453
      9 PA          6.3383    1.2707    1.3934 P.3       1 ACP         1.7996
     10 O1A         6.8983    0.6915    2.6601 O.2       1 ACP        -0.8588
     11 O2A         6.6824    0.4202    0.0609 O.3       1 ACP        -0.8037
     12 O3A         6.8669    2.7585    1.0432 O.3       1 ACP        -0.7988
     13 O5'         4.7297    1.4430    1.3689 O.3       1 ACP        -0.5960
     14 C5'         4.0922    1.9801    0.2227 C.3       1 ACP         0.1917
     15 C4'         2.5944    2.0310    0.4653 C.3       1 ACP         0.0908
     16 O4'         1.9327    2.5740   -0.6889 O.3       1 ACP        -0.4111
     17 C3'         1.9685    0.6634    0.6767 C.3       1 ACP         0.0927
     18 O3'         2.1425    0.1975    1.9977 O.3       1 ACP        -0.6127
     19 C2'         0.5176    0.9128    0.3099 C.3       1 ACP         0.1095
     20 O2'        -0.2103    1.4454    1.4152 O.3       1 ACP        -0.5953
     21 C1'         0.6219    1.9765   -0.7844 C.3       1 ACP         0.4273
     22 N9          0.4237    1.4496   -2.1357 N.pl3     1 ACP        -0.6934
     23 C8          0.7352    0.1857   -2.5616 C.ar      1 ACP         0.5422
     24 N7          0.4386    0.0025   -3.8312 N.2       1 ACP        -0.5596
     25 C5         -0.0877    1.2002   -4.2458 C.ar      1 ACP        -0.2259
     26 C6         -0.5826    1.6331   -5.4719 C.ar      1 ACP         0.7526
     27 N6         -0.6027    0.7720   -6.5824 N.pl3     1 ACP        -0.9660
     28 N1         -1.0479    2.9006   -5.5841 N.ar      1 ACP        -0.8027
     29 C2         -1.0031    3.6836   -4.4792 C.ar      1 ACP         0.6758
     30 N3         -0.5493    3.3800   -3.2436 N.ar      1 ACP        -0.7221
     31 C4         -0.1057    2.1146   -3.2048 C.ar      1 ACP         0.5858
     32 HOG2        9.9247    6.4092   -1.7457 H         1 ACP         0.4705
     33 HOG3        8.5699    3.6026   -1.4284 H         1 ACP         0.4705
     34 H3B1        7.1962    6.3124    0.9600 H         1 ACP         0.1189
     35 H3B2        6.7425    5.1580   -0.2898 H         1 ACP         0.1189
     36 HOA2        6.3789   -0.5107    0.0009 H         1 ACP         0.4679
     37 H5'1        4.4838    2.9857    0.0374 H         1 ACP         0.0587
     38 H5'2        4.3186    1.3449   -0.6398 H         1 ACP         0.0587
     39 H4'         2.3752    2.7029    1.3156 H         1 ACP         0.0938
     40 H3'         2.4336   -0.1217   -0.0016 H         1 ACP         0.0597
     41 HO3'        3.0987    0.1465    2.1461 H         1 ACP         0.4554
     42 H2'         0.0316    0.0155   -0.0339 H         1 ACP         0.0710
     43 HO2'       -0.1608    0.7921    2.1351 H         1 ACP         0.4360
     44 H1'        -0.1474    2.7798   -0.6651 H         1 ACP         0.1247
     45 H8          1.1731   -0.5535   -1.9047 H         1 ACP         0.0875
     46 HN61       -0.2130   -0.1479   -6.4999 H         1 ACP         0.4433
     47 HN62       -0.9195    1.1179   -7.4683 H         1 ACP         0.4433
     48 H2         -1.3833    4.6919   -4.6052 H         1 ACP         0.0459
@<TRIPOS>BOND
     1    1    2 2
     2    1    3 1
     3    1    4 1
     4    1    8 1
     5    3   32 1
     6    4   33 1
     7    5    6 2
     8    5    7 1
     9    5    8 1
    10    5   12 1
    11    8   34 1
    12    8   35 1
    13    9   10 2
    14    9   11 1
    15    9   12 1
    16    9   13 1
    17   11   36 1
    18   13   14 1
    19   14   15 1
    20   14   37 1
    21   14   38 1
    22   15   16 1
    23   15   17 1
    24   15   39 1
    25   16   21 1
    26   17   18 1
    27   17   19 1
    28   17   40 1
    29   18   41 1
    30   19   20 1
    31   19   21 1
    32   19   42 1
    33   20   43 1
    34   21   22 1
    35   21   44 1
    36   22   23 ar
    37   22   31 ar
    38   23   24 ar
    39   23   45 1
    40   24   25 ar
    41   25   26 ar
    42   25   31 ar
    43   26   27 1
    44   26   28 ar
    45   27   46 1
    46   27   47 1
    47   28   29 ar
    48   29   30 ar
    49   29   48 1
    50   30   31 ar
@<TRIPOS>SUBSTRUCTURE
     1 ACP         1 GROUP 0 A     ****
@<TRIPOS>MOLECULE
[[5-(6-aminopurin-9-yl)-3,4-dihydroxy-tetrahydrofuran-2-yl]methoxy-hydroxy-phosphoryl]oxy-(phosphonomethyl)phosphinate
   48    50     1     0     0
SMALL
USER_CHARGES

@<TRIPOS>ATOM
      1 PG         -0.2928    6.5291   -1.7171 P.3       1 ACP         1.6292
      2 O1G         0.5403    5.3742   -1.2488 O.2       1 ACP        -0.8674
      3 O2G         0.3564    7.9913   -1.4924 O.3       1 ACP        -0.7977
      4 O3G        -0.6724    6.5184   -3.2874 O.3       1 ACP        -0.7977
      5 PB         -3.1727    5.3187   -0.9933 P.3       1 ACP         1.4910
      6 O1B        -3.5101    5.1153   -2.4522 O.co2     1 ACP        -0.8292
      7 O2B        -4.2279    5.6333    0.0416 O.co2     1 ACP        -0.8292
      8 C3B        -1.9030    6.6611   -0.9070 C.3       1 ACP        -0.6453
      9 PA         -2.5393    2.4968   -0.4201 P.3       1 ACP         1.7996
     10 O1A        -2.8231    1.8710   -1.7548 O.2       1 ACP        -0.8588
     11 O2A        -3.7479    2.3698    0.6478 O.3       1 ACP        -0.8037
     12 O3A        -2.2418    4.0857   -0.4722 O.3       1 ACP        -0.7988
     13 O5'        -1.2435    1.9111    0.3519 O.3       1 ACP        -0.5960
     14 C5'        -0.8811    2.4285    1.6206 C.3       1 ACP         0.1917
     15 C4'        -0.1994    1.3333    2.4288 C.3       1 ACP         0.0908
     16 O4'        -1.1285    0.2356    2.5840 O.3       1 ACP        -0.4111
     17 C3'         1.0324    0.7610    1.7344 C.3       1 ACP         0.0927
     18 O3'         1.9175    0.2377    2.7247 O.3       1 ACP        -0.6127
     19 C2'         0.4468   -0.3802    0.9263 C.3       1 ACP         0.1095
     20 O2'         1.3993   -1.3703    0.5961 O.3       1 ACP        -0.5953
     21 C1'        -0.6159   -0.9100    1.8769 C.3       1 ACP         0.4273
     22 N9         -1.7127   -1.6108    1.2130 N.pl3     1 ACP        -0.6934
     23 C8         -2.1695   -1.3735   -0.0564 C.ar      1 ACP         0.5422
     24 N7         -3.1688   -2.1671   -0.3806 N.2       1 ACP        -0.5596
     25 C5         -3.3683   -2.9522    0.7270 C.ar      1 ACP        -0.2259
     26 C6         -4.2717   -3.9738    1.0025 C.ar      1 ACP         0.7526
     27 N6         -5.2165   -4.3746    0.0423 N.pl3     1 ACP        -0.9660
     28 N1         -4.2302   -4.5815    2.2126 N.ar      1 ACP        -0.8027
     29 C2         -3.2974   -4.1522    3.0967 C.ar      1 ACP         0.6758
     30 N3         -2.3737   -3.1778    2.9472 N.ar      1 ACP        -0.7221
     31 C4         -2.4717   -2.6214    1.7306 C.ar      1 ACP         0.5858
     32 HOG2        1.2149    8.2009   -1.9184 H         1 ACP         0.4705
     33 HOG3       -1.2163    7.2498   -3.6500 H         1 ACP         0.4705
     34 H3B1       -1.7133    6.8281    0.1593 H         1 ACP         0.1189
     35 H3B2       -2.3921    7.5643   -1.2892 H         1 ACP         0.1189
     36 HOA2       -4.0551    1.4766    0.9123 H         1 ACP         0.4679
     37 H5'1       -0.2031    3.2762    1.4777 H         1 ACP         0.0587
     38 H5'2       -1.7839    2.7764    2.1331 H         1 ACP         0.0587
     39 H4'         0.0402    1.7079    3.4342 H         1 ACP         0.0938
     40 H3'         1.5907    1.4859    1.1353 H         1 ACP         0.0597
     41 HO3'        2.6839   -0.1150    2.2479 H         1 ACP         0.4554
     42 H2'        -0.0017    0.0018    0.0005 H         1 ACP         0.0710
     43 HO2'        2.0953   -0.9375    0.0709 H         1 ACP         0.4360
     44 H1'        -0.1998   -1.6319    2.6178 H         1 ACP         0.1247
     45 H8         -1.7364   -0.6145   -0.6934 H         1 ACP         0.0875
     46 HN61       -5.2686   -3.8865   -0.8317 H         1 ACP         0.4433
     47 HN62       -5.8889   -5.0800    0.2773 H         1 ACP         0.4433
     48 H2         -3.2930   -4.6606    4.0551 H         1 ACP         0.0459
@<TRIPOS>BOND
     1    1    2 2
     2    1    3 1
     3    1    4 1
     4    1    8 1
     5    3   32 1
     6    4   33 1
     7    5    6 2
     8    5    7 1
     9    5    8 1
    10    5   12 1
    11    8   34 1
    12    8   35 1
    13    9   10 2
    14    9   11 1
    15    9   12 1
    16    9   13 1
    17   11   36 1
    18   13   14 1
    19   14   15 1
    20   14   37 1
    21   14   38 1
    22   15   16 1
    23   15   17 1
    24   15   39 1
    25   16   21 1
    26   17   18 1
    27   17   19 1
    28   17   40 1
    29   18   41 1
    30   19   20 1
    31   19   21 1
    32   19   42 1
    33   20   43 1
    34   21   22 1
    35   21   44 1
    36   22   23 ar
    37   22   31 ar
    38   23   24 ar
    39   23   45 1
    40   24   25 ar
    41   25   26 ar
    42   25   31 ar
    43   26   27 1
    44   26   28 ar
    45   27   46 1
    46   27   47 1
    47   28   29 ar
    48   29   30 ar
    49   29   48 1
    50   30   31 ar
@<TRIPOS>SUBSTRUCTURE
     1 ACP         1 GROUP 0 A     ****
@<TRIPOS>MOLECULE
[[5-(6-aminopurin-9-yl)-3,4-dihydroxy-tetrahydrofuran-2-yl]methoxy-hydroxy-phosphoryl]oxy-(phosphonomethyl)phosphinate
   48    50     1     0     0
SMALL
USER_CHARGES

@<TRIPOS>ATOM
      1 PG          1.4963    5.4857   -0.6034 P.3       1 ACP         1.6292
      2 O1G         2.1551    4.7836    0.5457 O.2       1 ACP        -0.8674
      3 O2G         2.4748    6.3836   -1.5232 O.3       1 ACP        -0.7977
      4 O3G         0.7497    4.5254   -1.6665 O.3       1 ACP        -0.7977
      5 PB         -1.3068    6.1237    0.8174 P.3       1 ACP         1.4910
      6 O1B        -2.0269    5.1004   -0.0299 O.co2     1 ACP        -0.8292
      7 O2B        -1.9848    7.3795    1.3140 O.co2     1 ACP        -0.8292
      8 C3B         0.1994    6.6479   -0.1196 C.3       1 ACP        -0.6453
      9 PA         -1.1637    4.4705    3.2544 P.3       1 ACP         1.7996
     10 O1A        -2.1590    5.1765    4.1288 O.2       1 ACP        -0.8588
     11 O2A         0.1513    3.9395    4.0330 O.3       1 ACP        -0.8037
     12 O3A        -0.5591    5.3752    2.0579 O.3       1 ACP        -0.7988
     13 O5'        -1.7334    3.1724    2.4742 O.3       1 ACP        -0.5960
     14 C5'        -0.8811    2.4285    1.6206 C.3       1 ACP         0.1917
     15 C4'        -0.1994    1.3333    2.4288 C.3       1 ACP         0.0908
     16 O4'        -1.1285    0.2356    2.5840 O.3       1 ACP        -0.4111
     17 C3'         1.0324    0.7610    1.7344 C.3       1 ACP         0.0927
     18 O3'         1.9175    0.2377    2.7247 O.3       1 ACP        -0.6127
     19 C2'         0.4468   -0.3802    0.9263 C.3       1 ACP         0.1095
     20 O2'         1.3993   -1.3703    0.5961 O.3       1 ACP        -0.5953
     21 C1'        -0.6159   -0.9100    1.8769 C.3       1 ACP         0.4273
     22 N9         -1.7127   -1.6108    1.2130 N.pl3     1 ACP        -0.6934
     23 C8         -1.6230   -2.3308    0.0513 C.ar      1 ACP         0.5422
     24 N7         -2.7800   -2.8517   -0.3004 N.2       1 ACP        -0.5596
     25 C5         -3.6574   -2.4511    0.6758 C.ar      1 ACP        -0.2259
     26 C6         -5.0170   -2.6775    0.8654 C.ar      1 ACP         0.7526
     27 N6         -5.7504   -3.4510   -0.0504 N.pl3     1 ACP        -0.9660
     28 N1         -5.6292   -2.1415    1.9486 N.ar      1 ACP        -0.8027
     29 C2         -4.8703   -1.4055    2.7961 C.ar      1 ACP         0.6758
     30 N3         -3.5527   -1.1170    2.7199 N.ar      1 ACP        -0.7221
     31 C4         -3.0124   -1.6774    1.6275 C.ar      1 ACP         0.5858
     32 HOG2        3.2268    5.9507   -1.9807 H         1 ACP         0.4705
     33 HOG3        0.0161    3.9526   -1.3564 H         1 ACP         0.4705
     34 H3B1        0.6759    7.4262    0.4871 H         1 ACP         0.1189
     35 H3B2       -0.1660    7.1335   -1.0316 H         1 ACP         0.1189
     36 HOA2        0.7232    4.5888    4.4950 H         1 ACP         0.4679
     37 H5'1       -1.4795    1.9921    0.8142 H         1 ACP         0.0587
     38 H5'2       -0.1362    3.1035    1.1868 H         1 ACP         0.0587
     39 H4'         0.0402    1.7079    3.4342 H         1 ACP         0.0938
     40 H3'         1.5907    1.4859    1.1353 H         1 ACP         0.0597
     41 HO3'        2.1521    0.9800    3.3017 H         1 ACP         0.4554
     42 H2'        -0.0017    0.0018    0.0005 H         1 ACP         0.0710
     43 HO2'        2.0953   -0.9375    0.0709 H         1 ACP         0.4360
     44 H1'        -0.1998   -1.6319    2.6178 H         1 ACP         0.1247
     45 H8         -0.6932   -2.4401   -0.4900 H         1 ACP         0.0875
     46 HN61       -6.7181   -3.6415    0.1291 H         1 ACP         0.4433
     47 HN62       -5.2769   -3.8816   -0.8220 H         1 ACP         0.4433
     48 H2         -5.3929   -0.9917    3.6520 H         1 ACP         0.0459
@<TRIPOS>BOND
     1    1    2 2
     2    1    3 1
     3    1    4 1
     4    1    8 1
     5    3   32 1
     6    4   33 1
     7    5    6 2
     8    5    7 1
     9    5    8 1
    10    5   12 1
    11    8   34 1
    12    8   35 1
    13    9   10 2
    14    9   11 1
    15    9   12 1
    16    9   13 1
    17   11   36 1
    18   13   14 1
    19   14   15 1
    20   14   37 1
    21   14   38 1
    22   15   16 1
    23   15   17 1
    24   15   39 1
    25   16   21 1
    26   17   18 1
    27   17   19 1
    28   17   40 1
    29   18   41 1
    30   19   20 1
    31   19   21 1
    32   19   42 1
    33   20   43 1
    34   21   22 1
    35   21   44 1
    36   22   23 ar
    37   22   31 ar
    38   23   24 ar
    39   23   45 1
    40   24   25 ar
    41   25   26 ar
    42   25   31 ar
    43   26   27 1
    44   26   28 ar
    45   27   46 1
    46   27   47 1
    47   28   29 ar
    48   29   30 ar
    49   29   48 1
    50   30   31 ar
@<TRIPOS>SUBSTRUCTURE
     1 ACP         1 GROUP 0 A     ****
@<TRIPOS>MOLECULE
[[5-(6-aminopurin-9-yl)-3,4-dihydroxy-tetrahydrofuran-2-yl]methoxy-hydroxy-phosphoryl]oxy-(phosphonomethyl)phosphinate
   48    50     1     0     0
SMALL
USER_CHARGES

@<TRIPOS>ATOM
      1 PG          1.1960    6.6547    0.2088 P.3       1 ACP         1.6292
      2 O1G         1.2110    5.5433    1.2148 O.2       1 ACP        -0.8674
      3 O2G         0.2954    7.9370    0.6024 O.3       1 ACP        -0.7977
      4 O3G         2.6380    7.2946   -0.1388 O.3       1 ACP        -0.7977
      5 PB         -1.1591    5.5315   -1.6552 P.3       1 ACP         1.4910
      6 O1B        -1.3263    5.2482   -3.1302 O.co2     1 ACP        -0.8292
      7 O2B        -2.0946    6.4463   -0.8994 O.co2     1 ACP        -0.8292
      8 C3B         0.5562    6.1804   -1.4135 C.3       1 ACP        -0.6453
      9 PA         -1.9903    2.8601   -0.7251 P.3       1 ACP         1.7996
     10 O1A        -2.3239    2.2013   -2.0321 O.2       1 ACP        -0.8588
     11 O2A        -3.2682    3.4570    0.0674 O.3       1 ACP        -0.8037
     12 O3A        -0.9912    4.1261   -0.8460 O.3       1 ACP        -0.7988
     13 O5'        -1.2435    1.9111    0.3519 O.3       1 ACP        -0.5960
     14 C5'        -0.8811    2.4285    1.6206 C.3       1 ACP         0.1917
     15 C4'        -0.1994    1.3333    2.4288 C.3       1 ACP         0.0908
     16 O4'        -1.1285    0.2356    2.5840 O.3       1 ACP        -0.4111
     17 C3'         1.0324    0.7610    1.7344 C.3       1 ACP         0.0927
     18 O3'         1.9175    0.2377    2.7247 O.3       1 ACP        -0.6127
     19 C2'         0.4468   -0.3802    0.9263 C.3       1 ACP         0.1095
     20 O2'         1.3993   -1.3703    0.5961 O.3       1 ACP        -0.5953
     21 C1'        -0.6159   -0.9100    1.8769 C.3       1 ACP         0.4273
     22 N9         -1.7127   -1.6108    1.2130 N.pl3     1 ACP        -0.6934
     23 C8         -2.1695   -1.3735   -0.0564 C.ar      1 ACP         0.5422
     24 N7         -3.1688   -2.1671   -0.3806 N.2       1 ACP        -0.5596
     25 C5         -3.3683   -2.9522    0.7270 C.ar      1 ACP        -0.2259
     26 C6         -4.2717   -3.9738    1.0025 C.ar      1 ACP         0.7526
     27 N6         -5.2165   -4.3746    0.0423 N.pl3     1 ACP        -0.9660
     28 N1         -4.2302   -4.5815    2.2126 N.ar      1 ACP        -0.8027
     29 C2         -3.2974   -4.1522    3.0967 C.ar      1 ACP         0.6758
     30 N3         -2.3737   -3.1778    2.9472 N.ar      1 ACP        -0.7221
     31 C4         -2.4717   -2.6214    1.7306 C.ar      1 ACP         0.5858
     32 HOG2        0.2490    8.6942   -0.0194 H         1 ACP         0.4705
     33 HOG3        3.1616    7.7061    0.5815 H         1 ACP         0.4705
     34 H3B1        0.6394    7.0604   -2.0613 H         1 ACP         0.1189
     35 H3B2        1.2281    5.4179   -1.8237 H         1 ACP         0.1189
     36 HOA2       -3.9880    2.8465    0.3345 H         1 ACP         0.4679
     37 H5'1       -0.2031    3.2762    1.4777 H         1 ACP         0.0587
     38 H5'2       -1.7839    2.7764    2.1331 H         1 ACP         0.0587
     39 H4'         0.0402    1.7079    3.4342 H         1 ACP         0.0938
     40 H3'         1.5907    1.4859    1.1353 H         1 ACP         0.0597
     41 HO3'        2.6839   -0.1150    2.2479 H         1 ACP         0.4554
     42 H2'        -0.0017    0.0018    0.0005 H         1 ACP         0.0710
     43 HO2'        2.0953   -0.9375    0.0709 H         1 ACP         0.4360
     44 H1'        -0.1998   -1.6319    2.6178 H         1 ACP         0.1247
     45 H8         -1.7364   -0.6145   -0.6934 H         1 ACP         0.0875
     46 HN61       -5.2686   -3.8865   -0.8317 H         1 ACP         0.4433
     47 HN62       -5.8889   -5.0800    0.2773 H         1 ACP         0.4433
     48 H2         -3.2930   -4.6606    4.0551 H         1 ACP         0.0459
@<TRIPOS>BOND
     1    1    2 2
     2    1    3 1
     3    1    4 1
     4    1    8 1
     5    3   32 1
     6    4   33 1
     7    5    6 2
     8    5    7 1
     9    5    8 1
    10    5   12 1
    11    8   34 1
    12    8   35 1
    13    9   10 2
    14    9   11 1
    15    9   12 1
    16    9   13 1
    17   11   36 1
    18   13   14 1
    19   14   15 1
    20   14   37 1
    21   14   38 1
    22   15   16 1
    23   15   17 1
    24   15   39 1
    25   16   21 1
    26   17   18 1
    27   17   19 1
    28   17   40 1
    29   18   41 1
    30   19   20 1
    31   19   21 1
    32   19   42 1
    33   20   43 1
    34   21   22 1
    35   21   44 1
    36   22   23 ar
    37   22   31 ar
    38   23   24 ar
    39   23   45 1
    40   24   25 ar
    41   25   26 ar
    42   25   31 ar
    43   26   27 1
    44   26   28 ar
    45   27   46 1
    46   27   47 1
    47   28   29 ar
    48   29   30 ar
    49   29   48 1
    50   30   31 ar
@<TRIPOS>SUBSTRUCTURE
     1 ACP         1 GROUP 0 A     ****
@<TRIPOS>MOLECULE
[[5-(6-aminopurin-9-yl)-3,4-dihydroxy-tetrahydrofuran-2-yl]methoxy-hydroxy-phosphoryl]oxy-(phosphonomethyl)phosphinate
   48    50     1     0     0
SMALL
USER_CHARGES

@<TRIPOS>ATOM
      1 PG         -1.2038    7.2383    0.6564 P.3       1 ACP         1.6292
      2 O1G        -2.2131    7.7944    1.6153 O.2       1 ACP        -0.8674
      3 O2G        -0.0484    8.2663    0.1890 O.3       1 ACP        -0.7977
      4 O3G        -0.3793    5.9538    1.1855 O.3       1 ACP        -0.7977
      5 PB         -3.1727    5.3187   -0.9933 P.3       1 ACP         1.4910
      6 O1B        -3.5101    5.1153   -2.4522 O.co2     1 ACP        -0.8292
      7 O2B        -4.2279    5.6333    0.0416 O.co2     1 ACP        -0.8292
      8 C3B        -1.9030    6.6611   -0.9070 C.3       1 ACP        -0.6453
      9 PA         -2.5393    2.4968   -0.4201 P.3       1 ACP         1.7996
     10 O1A        -2.8231    1.8710   -1.7548 O.2       1 ACP        -0.8588
     11 O2A        -3.7479    2.3698    0.6478 O.3       1 ACP        -0.8037
     12 O3A        -2.2418    4.0857   -0.4722 O.3       1 ACP        -0.7988
     13 O5'        -1.2435    1.9111    0.3519 O.3       1 ACP        -0.5960
     14 C5'        -0.8811    2.4285    1.6206 C.3       1 ACP         0.1917
     15 C4'        -0.1994    1.3333    2.4288 C.3       1 ACP         0.0908
     16 O4'        -1.1285    0.2356    2.5840 O.3       1 ACP        -0.4111
     17 C3'         1.0324    0.7610    1.7344 C.3       1 ACP         0.0927
     18 O3'         1.9175    0.2377    2.7247 O.3       1 ACP        -0.6127
     19 C2'         0.4468   -0.3802    0.9263 C.3       1 ACP         0.1095
     20 O2'         1.3993   -1.3703    0.5961 O.3       1 ACP        -0.5953
     21 C1'        -0.6159   -0.9100    1.8769 C.3       1 ACP         0.4273
     22 N9         -1.7127   -1.6108    1.2130 N.pl3     1 ACP        -0.6934
     23 C8         -2.1695   -1.3735   -0.0564 C.ar      1 ACP         0.5422
     24 N7         -3.1688   -2.1671   -0.3806 N.2       1 ACP        -0.5596
     25 C5         -3.3683   -2.9522    0.7270 C.ar      1 ACP        -0.2259
     26 C6         -4.2717   -3.9738    1.0025 C.ar      1 ACP         0.7526
     27 N6         -5.2165   -4.3746    0.0423 N.pl3     1 ACP        -0.9660
     28 N1         -4.2302   -4.5815    2.2126 N.ar      1 ACP        -0.8027
     29 C2         -3.2974   -4.1522    3.0967 C.ar      1 ACP         0.6758
     30 N3         -2.3737   -3.1778    2.9472 N.ar      1 ACP        -0.7221
     31 C4         -2.4717   -2.6214    1.7306 C.ar      1 ACP         0.5858
     32 HOG2        0.5413    8.6590    0.8674 H         1 ACP         0.4705
     33 HOG3        0.2949    5.5476    0.6000 H         1 ACP         0.4705
     34 H3B1       -2.3512    7.5316   -1.3992 H         1 ACP         0.1189
     35 H3B2       -1.0709    6.3308   -1.5392 H         1 ACP         0.1189
     36 HOA2       -4.0551    1.4766    0.9123 H         1 ACP         0.4679
     37 H5'1       -0.2031    3.2762    1.4777 H         1 ACP         0.0587
     38 H5'2       -1.7839    2.7764    2.1331 H         1 ACP         0.0587
     39 H4'         0.0402    1.7079    3.4342 H         1 ACP         0.0938
     40 H3'         1.5907    1.4859    1.1353 H         1 ACP         0.0597
     41 HO3'        2.6839   -0.1150    2.2479 H         1 ACP         0.4554
     42 H2'        -0.0017    0.0018    0.0005 H         1 ACP         0.0710
     43 HO2'        2.0953   -0.9375    0.0709 H         1 ACP         0.4360
     44 H1'        -0.1998   -1.6319    2.6178 H         1 ACP         0.1247
     45 H8         -1.7364   -0.6145   -0.6934 H         1 ACP         0.0875
     46 HN61       -5.2686   -3.8865   -0.8317 H         1 ACP         0.4433
     47 HN62       -5.8889   -5.0800    0.2773 H         1 ACP         0.4433
     48 H2         -3.2930   -4.6606    4.0551 H         1 ACP         0.0459
@<TRIPOS>BOND
     1    1    2 2
     2    1    3 1
     3    1    4 1
     4    1    8 1
     5    3   32 1
     6    4   33 1
     7    5    6 2
     8    5    7 1
     9    5    8 1
    10    5   12 1
    11    8   34 1
    12    8   35 1
    13    9   10 2
    14    9   11 1
    15    9   12 1
    16    9   13 1
    17   11   36 1
    18   13   14 1
    19   14   15 1
    20   14   37 1
    21   14   38 1
    22   15   16 1
    23   15   17 1
    24   15   39 1
    25   16   21 1
    26   17   18 1
    27   17   19 1
    28   17   40 1
    29   18   41 1
    30   19   20 1
    31   19   21 1
    32   19   42 1
    33   20   43 1
    34   21   22 1
    35   21   44 1
    36   22   23 ar
    37   22   31 ar
    38   23   24 ar
    39   23   45 1
    40   24   25 ar
    41   25   26 ar
    42   25   31 ar
    43   26   27 1
    44   26   28 ar
    45   27   46 1
    46   27   47 1
    47   28   29 ar
    48   29   30 ar
    49   29   48 1
    50   30   31 ar
@<TRIPOS>SUBSTRUCTURE
     1 ACP         1 GROUP 0 A     ****
@<TRIPOS>MOLECULE
[[5-(6-aminopurin-9-yl)-3,4-dihydroxy-tetrahydrofuran-2-yl]methoxy-hydroxy-phosphoryl]oxy-(phosphonomethyl)phosphinate
   48    50     1     0     0
SMALL
USER_CHARGES

@<TRIPOS>ATOM
      1 PG          0.9014    6.7883    0.2125 P.3       1 ACP         1.6292
      2 O1G         2.2756    6.8932    0.8026 O.2       1 ACP        -0.8674
      3 O2G         0.6785    7.5828   -1.1764 O.3       1 ACP        -0.7977
      4 O3G         0.4036    5.2885   -0.1227 O.3       1 ACP        -0.7977
      5 PB         -0.7559    6.7452    2.9574 P.3       1 ACP         1.4910
      6 O1B        -1.9145    7.5276    3.5311 O.co2     1 ACP        -0.8292
      7 O2B         0.5707    6.6298    3.6716 O.co2     1 ACP        -0.8292
      8 C3B        -0.4140    7.4294    1.2732 C.3       1 ACP        -0.6453
      9 PA         -1.9391    4.0774    3.3757 P.3       1 ACP         1.7996
     10 O1A        -3.2310    4.4475    4.0450 O.2       1 ACP        -0.8588
     11 O2A        -0.7613    3.6379    4.3940 O.3       1 ACP        -0.8037
     12 O3A        -1.2682    5.2646    2.5062 O.3       1 ACP        -0.7988
     13 O5'        -2.0397    2.8622    2.3121 O.3       1 ACP        -0.5960
     14 C5'        -0.8811    2.4285    1.6206 C.3       1 ACP         0.1917
     15 C4'        -0.1994    1.3333    2.4288 C.3       1 ACP         0.0908
     16 O4'        -1.1285    0.2356    2.5840 O.3       1 ACP        -0.4111
     17 C3'         1.0324    0.7610    1.7344 C.3       1 ACP         0.0927
     18 O3'         1.9175    0.2377    2.7247 O.3       1 ACP        -0.6127
     19 C2'         0.4468   -0.3802    0.9263 C.3       1 ACP         0.1095
     20 O2'         1.3993   -1.3703    0.5961 O.3       1 ACP        -0.5953
     21 C1'        -0.6159   -0.9100    1.8769 C.3       1 ACP         0.4273
     22 N9         -1.7127   -1.6108    1.2130 N.pl3     1 ACP        -0.6934
     23 C8         -1.6230   -2.3308    0.0513 C.ar      1 ACP         0.5422
     24 N7         -2.7800   -2.8517   -0.3004 N.2       1 ACP        -0.5596
     25 C5         -3.6574   -2.4511    0.6758 C.ar      1 ACP        -0.2259
     26 C6         -5.0170   -2.6775    0.8654 C.ar      1 ACP         0.7526
     27 N6         -5.7504   -3.4510   -0.0504 N.pl3     1 ACP        -0.9660
     28 N1         -5.6292   -2.1415    1.9486 N.ar      1 ACP        -0.8027
     29 C2         -4.8703   -1.4055    2.7961 C.ar      1 ACP         0.6758
     30 N3         -3.5527   -1.1170    2.7199 N.ar      1 ACP        -0.7221
     31 C4         -3.0124   -1.6774    1.6275 C.ar      1 ACP         0.5858
     32 HOG2        1.2291    7.3465   -1.9530 H         1 ACP         0.4705
     33 HOG3       -0.4880    5.1591   -0.5107 H         1 ACP         0.4705
     34 H3B1       -0.2190    8.4983    1.4161 H         1 ACP         0.1189
     35 H3B2       -1.3553    7.3487    0.7176 H         1 ACP         0.1189
     36 HOA2       -0.4545    4.2797    5.0694 H         1 ACP         0.4679
     37 H5'1       -1.1760    2.0499    0.6365 H         1 ACP         0.0587
     38 H5'2       -0.2073    3.2811    1.4873 H         1 ACP         0.0587
     39 H4'         0.0402    1.7079    3.4342 H         1 ACP         0.0938
     40 H3'         1.5907    1.4859    1.1353 H         1 ACP         0.0597
     41 HO3'        2.6839   -0.1150    2.2479 H         1 ACP         0.4554
     42 H2'        -0.0017    0.0018    0.0005 H         1 ACP         0.0710
     43 HO2'        2.0953   -0.9375    0.0709 H         1 ACP         0.4360
     44 H1'        -0.1998   -1.6319    2.6178 H         1 ACP         0.1247
     45 H8         -0.6932   -2.4401   -0.4900 H         1 ACP         0.0875
     46 HN61       -5.2972   -3.8032   -0.8723 H         1 ACP         0.4433
     47 HN62       -6.7381   -3.5629    0.0791 H         1 ACP         0.4433
     48 H2         -5.3929   -0.9917    3.6520 H         1 ACP         0.0459
@<TRIPOS>BOND
     1    1    2 2
     2    1    3 1
     3    1    4 1
     4    1    8 1
     5    3   32 1
     6    4   33 1
     7    5    6 2
     8    5    7 1
     9    5    8 1
    10    5   12 1
    11    8   34 1
    12    8   35 1
    13    9   10 2
    14    9   11 1
    15    9   12 1
    16    9   13 1
    17   11   36 1
    18   13   14 1
    19   14   15 1
    20   14   37 1
    21   14   38 1
    22   15   16 1
    23   15   17 1
    24   15   39 1
    25   16   21 1
    26   17   18 1
    27   17   19 1
    28   17   40 1
    29   18   41 1
    30   19   20 1
    31   19   21 1
    32   19   42 1
    33   20   43 1
    34   21   22 1
    35   21   44 1
    36   22   23 ar
    37   22   31 ar
    38   23   24 ar
    39   23   45 1
    40   24   25 ar
    41   25   26 ar
    42   25   31 ar
    43   26   27 1
    44   26   28 ar
    45   27   46 1
    46   27   47 1
    47   28   29 ar
    48   29   30 ar
    49   29   48 1
    50   30   31 ar
@<TRIPOS>SUBSTRUCTURE
     1 ACP         1 GROUP 0 A     ****
@<TRIPOS>MOLECULE
[[5-(6-aminopurin-9-yl)-3,4-dihydroxy-tetrahydrofuran-2-yl]methoxy-hydroxy-phosphoryl]oxy-(phosphonomethyl)phosphinate
   48    50     1     0     0
SMALL
USER_CHARGES

@<TRIPOS>ATOM
      1 PG         -4.7138    6.1140    1.4490 P.3       1 ACP         1.6292
      2 O1G        -4.4624    7.5354    1.8534 O.2       1 ACP        -0.8674
      3 O2G        -3.9570    4.9946    2.3347 O.3       1 ACP        -0.7977
      4 O3G        -6.2597    5.6462    1.4844 O.3       1 ACP        -0.7977
      5 PB         -2.4565    5.8938   -0.8180 P.3       1 ACP         1.4910
      6 O1B        -2.0704    7.3446   -0.6458 O.co2     1 ACP        -0.8292
      7 O2B        -2.3523    5.1846   -2.1483 O.co2     1 ACP        -0.8292
      8 C3B        -4.2051    5.7205   -0.2401 C.3       1 ACP        -0.6453
      9 PA         -0.1733    4.7801    0.6785 P.3       1 ACP         1.7996
     10 O1A         0.5701    6.0367    1.0281 O.2       1 ACP        -0.8588
     11 O2A         0.3946    4.0088   -0.6253 O.3       1 ACP        -0.8037
     12 O3A        -1.7399    4.9978    0.3404 O.3       1 ACP        -0.7988
     13 O5'        -0.2069    3.6554    1.8412 O.3       1 ACP        -0.5960
     14 C5'        -0.8811    2.4285    1.6206 C.3       1 ACP         0.1917
     15 C4'        -0.1994    1.3333    2.4288 C.3       1 ACP         0.0908
     16 O4'        -1.1285    0.2356    2.5840 O.3       1 ACP        -0.4111
     17 C3'         1.0324    0.7610    1.7344 C.3       1 ACP         0.0927
     18 O3'         1.9175    0.2377    2.7247 O.3       1 ACP        -0.6127
     19 C2'         0.4468   -0.3802    0.9263 C.3       1 ACP         0.1095
     20 O2'         1.3993   -1.3703    0.5961 O.3       1 ACP        -0.5953
     21 C1'        -0.6159   -0.9100    1.8769 C.3       1 ACP         0.4273
     22 N9         -1.7127   -1.6108    1.2130 N.pl3     1 ACP        -0.6934
     23 C8         -2.1695   -1.3735   -0.0564 C.ar      1 ACP         0.5422
     24 N7         -3.1688   -2.1671   -0.3806 N.2       1 ACP        -0.5596
     25 C5         -3.3683   -2.9522    0.7270 C.ar      1 ACP        -0.2259
     26 C6         -4.2717   -3.9738    1.0025 C.ar      1 ACP         0.7526
     27 N6         -5.2165   -4.3746    0.0423 N.pl3     1 ACP        -0.9660
     28 N1         -4.2302   -4.5815    2.2126 N.ar      1 ACP        -0.8027
     29 C2         -3.2974   -4.1522    3.0967 C.ar      1 ACP         0.6758
     30 N3         -2.3737   -3.1778    2.9472 N.ar      1 ACP        -0.7221
     31 C4         -2.4717   -2.6214    1.7306 C.ar      1 ACP         0.5858
     32 HOG2       -2.9769    5.0025    2.3743 H         1 ACP         0.4705
     33 HOG3       -6.7486    5.6846    2.3340 H         1 ACP         0.4705
     34 H3B1       -4.4807    4.6758   -0.4232 H         1 ACP         0.1189
     35 H3B2       -4.8095    6.3333   -0.9184 H         1 ACP         0.1189
     36 HOA2        1.3229    3.6919   -0.6217 H         1 ACP         0.4679
     37 H5'1       -1.9259    2.5372    1.9293 H         1 ACP         0.0587
     38 H5'2       -0.8477    2.1923    0.5521 H         1 ACP         0.0587
     39 H4'         0.0402    1.7079    3.4342 H         1 ACP         0.0938
     40 H3'         1.5907    1.4859    1.1353 H         1 ACP         0.0597
     41 HO3'        2.6839   -0.1150    2.2479 H         1 ACP         0.4554
     42 H2'        -0.0017    0.0018    0.0005 H         1 ACP         0.0710
     43 HO2'        0.9369   -2.0558    0.0825 H         1 ACP         0.4360
     44 H1'        -0.1998   -1.6319    2.6178 H         1 ACP         0.1247
     45 H8         -1.7364   -0.6145   -0.6934 H         1 ACP         0.0875
     46 HN61       -5.2686   -3.8865   -0.8317 H         1 ACP         0.4433
     47 HN62       -5.8889   -5.0800    0.2773 H         1 ACP         0.4433
     48 H2         -3.2930   -4.6606    4.0551 H         1 ACP         0.0459
@<TRIPOS>BOND
     1    1    2 2
     2    1    3 1
     3    1    4 1
     4    1    8 1
     5    3   32 1
     6    4   33 1
     7    5    6 2
     8    5    7 1
     9    5    8 1
    10    5   12 1
    11    8   34 1
    12    8   35 1
    13    9   10 2
    14    9   11 1
    15    9   12 1
    16    9   13 1
    17   11   36 1
    18   13   14 1
    19   14   15 1
    20   14   37 1
    21   14   38 1
    22   15   16 1
    23   15   17 1
    24   15   39 1
    25   16   21 1
    26   17   18 1
    27   17   19 1
    28   17   40 1
    29   18   41 1
    30   19   20 1
    31   19   21 1
    32   19   42 1
    33   20   43 1
    34   21   22 1
    35   21   44 1
    36   22   23 ar
    37   22   31 ar
    38   23   24 ar
    39   23   45 1
    40   24   25 ar
    41   25   26 ar
    42   25   31 ar
    43   26   27 1
    44   26   28 ar
    45   27   46 1
    46   27   47 1
    47   28   29 ar
    48   29   30 ar
    49   29   48 1
    50   30   31 ar
@<TRIPOS>SUBSTRUCTURE
     1 ACP         1 GROUP 0 A     ****
@<TRIPOS>MOLECULE
[[5-(6-aminopurin-9-yl)-3,4-dihydroxy-tetrahydrofuran-2-yl]methoxy-hydroxy-phosphoryl]oxy-(phosphonomethyl)phosphinate
   48    50     1     0     0
SMALL
USER_CHARGES

@<TRIPOS>ATOM
      1 PG          0.4190    8.2695    1.8627 P.3       1 ACP         1.6292
      2 O1G        -0.4868    9.4320    2.1376 O.2       1 ACP        -0.8674
      3 O2G         1.8136    8.6320    1.1320 O.3       1 ACP        -0.7977
      4 O3G         0.8779    7.4259    3.1617 O.3       1 ACP        -0.7977
      5 PB         -1.8430    6.0887    1.2221 P.3       1 ACP         1.4910
      6 O1B        -2.1263    5.1276    0.0908 O.co2     1 ACP        -0.8292
      7 O2B        -2.8558    7.1105    1.6841 O.co2     1 ACP        -0.8292
      8 C3B        -0.2976    7.0069    0.7862 C.3       1 ACP        -0.6453
      9 PA         -1.9391    4.0774    3.3757 P.3       1 ACP         1.7996
     10 O1A        -3.2310    4.4475    4.0450 O.2       1 ACP        -0.8588
     11 O2A        -0.7613    3.6379    4.3940 O.3       1 ACP        -0.8037
     12 O3A        -1.2682    5.2646    2.5062 O.3       1 ACP        -0.7988
     13 O5'        -2.0397    2.8622    2.3121 O.3       1 ACP        -0.5960
     14 C5'        -0.8811    2.4285    1.6206 C.3       1 ACP         0.1917
     15 C4'        -0.1994    1.3333    2.4288 C.3       1 ACP         0.0908
     16 O4'        -1.1285    0.2356    2.5840 O.3       1 ACP        -0.4111
     17 C3'         1.0324    0.7610    1.7344 C.3       1 ACP         0.0927
     18 O3'         1.9175    0.2377    2.7247 O.3       1 ACP        -0.6127
     19 C2'         0.4468   -0.3802    0.9263 C.3       1 ACP         0.1095
     20 O2'         1.3993   -1.3703    0.5961 O.3       1 ACP        -0.5953
     21 C1'        -0.6159   -0.9100    1.8769 C.3       1 ACP         0.4273
     22 N9         -1.7127   -1.6108    1.2130 N.pl3     1 ACP        -0.6934
     23 C8         -1.6230   -2.3308    0.0513 C.ar      1 ACP         0.5422
     24 N7         -2.7800   -2.8517   -0.3004 N.2       1 ACP        -0.5596
     25 C5         -3.6574   -2.4511    0.6758 C.ar      1 ACP        -0.2259
     26 C6         -5.0170   -2.6775    0.8654 C.ar      1 ACP         0.7526
     27 N6         -5.7504   -3.4510   -0.0504 N.pl3     1 ACP        -0.9660
     28 N1         -5.6292   -2.1415    1.9486 N.ar      1 ACP        -0.8027
     29 C2         -4.8703   -1.4055    2.7961 C.ar      1 ACP         0.6758
     30 N3         -3.5527   -1.1170    2.7199 N.ar      1 ACP        -0.7221
     31 C4         -3.0124   -1.6774    1.6275 C.ar      1 ACP         0.5858
     32 HOG2        2.4359    9.2479    1.5743 H         1 ACP         0.4705
     33 HOG3        1.4712    6.6539    3.0420 H         1 ACP         0.4705
     34 H3B1       -0.4929    7.4831   -0.1813 H         1 ACP         0.1189
     35 H3B2        0.4699    6.2432    0.6164 H         1 ACP         0.1189
     36 HOA2       -0.4545    4.2797    5.0694 H         1 ACP         0.4679
     37 H5'1       -1.1760    2.0499    0.6365 H         1 ACP         0.0587
     38 H5'2       -0.2073    3.2811    1.4873 H         1 ACP         0.0587
     39 H4'         0.0402    1.7079    3.4342 H         1 ACP         0.0938
     40 H3'         1.5907    1.4859    1.1353 H         1 ACP         0.0597
     41 HO3'        2.6839   -0.1150    2.2479 H         1 ACP         0.4554
     42 H2'        -0.0017    0.0018    0.0005 H         1 ACP         0.0710
     43 HO2'        2.0953   -0.9375    0.0709 H         1 ACP         0.4360
     44 H1'        -0.1998   -1.6319    2.6178 H         1 ACP         0.1247
     45 H8         -0.6932   -2.4401   -0.4900 H         1 ACP         0.0875
     46 HN61       -5.2972   -3.8032   -0.8723 H         1 ACP         0.4433
     47 HN62       -6.7381   -3.5629    0.0791 H         1 ACP         0.4433
     48 H2         -5.3929   -0.9917    3.6520 H         1 ACP         0.0459
@<TRIPOS>BOND
     1    1    2 2
     2    1    3 1
     3    1    4 1
     4    1    8 1
     5    3   32 1
     6    4   33 1
     7    5    6 2
     8    5    7 1
     9    5    8 1
    10    5   12 1
    11    8   34 1
    12    8   35 1
    13    9   10 2
    14    9   11 1
    15    9   12 1
    16    9   13 1
    17   11   36 1
    18   13   14 1
    19   14   15 1
    20   14   37 1
    21   14   38 1
    22   15   16 1
    23   15   17 1
    24   15   39 1
    25   16   21 1
    26   17   18 1
    27   17   19 1
    28   17   40 1
    29   18   41 1
    30   19   20 1
    31   19   21 1
    32   19   42 1
    33   20   43 1
    34   21   22 1
    35   21   44 1
    36   22   23 ar
    37   22   31 ar
    38   23   24 ar
    39   23   45 1
    40   24   25 ar
    41   25   26 ar
    42   25   31 ar
    43   26   27 1
    44   26   28 ar
    45   27   46 1
    46   27   47 1
    47   28   29 ar
    48   29   30 ar
    49   29   48 1
    50   30   31 ar
@<TRIPOS>SUBSTRUCTURE
     1 ACP         1 GROUP 0 A     ****
@<TRIPOS>MOLECULE
[[5-(6-aminopurin-9-yl)-3,4-dihydroxy-tetrahydrofuran-2-yl]methoxy-hydroxy-phosphoryl]oxy-(phosphonomethyl)phosphinate
   48    50     1     0     0
SMALL
USER_CHARGES

@<TRIPOS>ATOM
      1 PG         -5.4538   -0.2902    1.6499 P.3       1 ACP         1.6292
      2 O1G        -4.2127   -0.2320    2.4886 O.2       1 ACP        -0.8674
      3 O2G        -5.8230   -1.7458    1.0541 O.3       1 ACP        -0.7977
      4 O3G        -6.8128    0.1742    2.3897 O.3       1 ACP        -0.7977
      5 PB         -5.1938    2.5953    0.2753 P.3       1 ACP         1.4910
      6 O1B        -6.3512    3.1392    1.0804 O.co2     1 ACP        -0.8292
      7 O2B        -4.8837    3.0831   -1.1209 O.co2     1 ACP        -0.8292
      8 C3B        -5.4077    0.7604    0.1800 C.3       1 ACP        -0.6453
      9 PA         -3.0702    3.8636    1.8797 P.3       1 ACP         1.7996
     10 O1A        -3.8927    4.6246    2.8787 O.2       1 ACP        -0.8588
     11 O2A        -2.5550    4.7477    0.6266 O.3       1 ACP        -0.8037
     12 O3A        -3.8386    2.6236    1.1813 O.3       1 ACP        -0.7988
     13 O5'        -1.7334    3.1724    2.4742 O.3       1 ACP        -0.5960
     14 C5'        -0.8811    2.4285    1.6206 C.3       1 ACP         0.1917
     15 C4'        -0.1994    1.3333    2.4288 C.3       1 ACP         0.0908
     16 O4'        -1.1285    0.2356    2.5840 O.3       1 ACP        -0.4111
     17 C3'         1.0324    0.7610    1.7344 C.3       1 ACP         0.0927
     18 O3'         1.9175    0.2377    2.7247 O.3       1 ACP        -0.6127
     19 C2'         0.4468   -0.3802    0.9263 C.3       1 ACP         0.1095
     20 O2'         1.3993   -1.3703    0.5961 O.3       1 ACP        -0.5953
     21 C1'        -0.6159   -0.9100    1.8769 C.3       1 ACP         0.4273
     22 N9         -1.7127   -1.6108    1.2130 N.pl3     1 ACP        -0.6934
     23 C8         -2.5476   -1.0844    0.2632 C.ar      1 ACP         0.5422
     24 N7         -3.4391   -1.9591   -0.1536 N.2       1 ACP        -0.5596
     25 C5         -3.1701   -3.1016    0.5574 C.ar      1 ACP        -0.2259
     26 C6         -3.7593   -4.3620    0.5656 C.ar      1 ACP         0.7526
     27 N6         -4.8512   -4.6493   -0.2712 N.pl3     1 ACP        -0.9660
     28 N1         -3.2659   -5.3144    1.3932 N.ar      1 ACP        -0.8027
     29 C2         -2.2122   -4.9785    2.1759 C.ar      1 ACP         0.6758
     30 N3         -1.5595   -3.7985    2.2572 N.ar      1 ACP        -0.7221
     31 C4         -2.0986   -2.9054    1.4140 C.ar      1 ACP         0.5858
     32 HOG2       -6.6252   -1.8423    0.4978 H         1 ACP         0.4705
     33 HOG3       -7.1086   -0.3113    3.1891 H         1 ACP         0.4705
     34 H3B1       -4.5899    0.3942   -0.4509 H         1 ACP         0.1189
     35 H3B2       -6.3379    0.5932   -0.3750 H         1 ACP         0.1189
     36 HOA2       -1.9828    5.5256    0.7985 H         1 ACP         0.4679
     37 H5'1       -1.4795    1.9921    0.8142 H         1 ACP         0.0587
     38 H5'2       -0.1362    3.1035    1.1868 H         1 ACP         0.0587
     39 H4'         0.0402    1.7079    3.4342 H         1 ACP         0.0938
     40 H3'         1.5907    1.4859    1.1353 H         1 ACP         0.0597
     41 HO3'        2.6839   -0.1150    2.2479 H         1 ACP         0.4554
     42 H2'        -0.0017    0.0018    0.0005 H         1 ACP         0.0710
     43 HO2'        2.0953   -0.9375    0.0709 H         1 ACP         0.4360
     44 H1'        -0.1998   -1.6319    2.6178 H         1 ACP         0.1247
     45 H8         -2.4576   -0.0639   -0.0831 H         1 ACP         0.0875
     46 HN61       -5.2371   -3.9234   -0.8448 H         1 ACP         0.4433
     47 HN62       -5.2909   -5.5485   -0.2160 H         1 ACP         0.4433
     48 H2         -1.8433   -5.7650    2.8259 H         1 ACP         0.0459
@<TRIPOS>BOND
     1    1    2 2
     2    1    3 1
     3    1    4 1
     4    1    8 1
     5    3   32 1
     6    4   33 1
     7    5    6 2
     8    5    7 1
     9    5    8 1
    10    5   12 1
    11    8   34 1
    12    8   35 1
    13    9   10 2
    14    9   11 1
    15    9   12 1
    16    9   13 1
    17   11   36 1
    18   13   14 1
    19   14   15 1
    20   14   37 1
    21   14   38 1
    22   15   16 1
    23   15   17 1
    24   15   39 1
    25   16   21 1
    26   17   18 1
    27   17   19 1
    28   17   40 1
    29   18   41 1
    30   19   20 1
    31   19   21 1
    32   19   42 1
    33   20   43 1
    34   21   22 1
    35   21   44 1
    36   22   23 ar
    37   22   31 ar
    38   23   24 ar
    39   23   45 1
    40   24   25 ar
    41   25   26 ar
    42   25   31 ar
    43   26   27 1
    44   26   28 ar
    45   27   46 1
    46   27   47 1
    47   28   29 ar
    48   29   30 ar
    49   29   48 1
    50   30   31 ar
@<TRIPOS>SUBSTRUCTURE
     1 ACP         1 GROUP 0 A     ****
@<TRIPOS>MOLECULE
[[5-(6-aminopurin-9-yl)-3,4-dihydroxy-tetrahydrofuran-2-yl]methoxy-hydroxy-phosphoryl]oxy-(phosphonomethyl)phosphinate
   48    50     1     0     0
SMALL
USER_CHARGES

@<TRIPOS>ATOM
      1 PG         -4.5662    5.9851   -1.4838 P.3       1 ACP         1.6292
      2 O1G        -5.7748    5.5228   -2.2408 O.2       1 ACP        -0.8674
      3 O2G        -3.1475    5.7206   -2.2100 O.3       1 ACP        -0.7977
      4 O3G        -4.5275    7.5621   -1.1357 O.3       1 ACP        -0.7977
      5 PB         -2.9443    5.6052    1.2563 P.3       1 ACP         1.4910
      6 O1B        -3.1080    4.7619    2.4995 O.co2     1 ACP        -0.8292
      7 O2B        -2.8316    7.1110    1.3132 O.co2     1 ACP        -0.8292
      8 C3B        -4.3573    5.2033    0.1323 C.3       1 ACP        -0.6453
      9 PA         -0.1733    4.7801    0.6785 P.3       1 ACP         1.7996
     10 O1A         0.5701    6.0367    1.0281 O.2       1 ACP        -0.8588
     11 O2A         0.3946    4.0088   -0.6253 O.3       1 ACP        -0.8037
     12 O3A        -1.7399    4.9978    0.3404 O.3       1 ACP        -0.7988
     13 O5'        -0.2069    3.6554    1.8412 O.3       1 ACP        -0.5960
     14 C5'        -0.8811    2.4285    1.6206 C.3       1 ACP         0.1917
     15 C4'        -0.1994    1.3333    2.4288 C.3       1 ACP         0.0908
     16 O4'        -1.1285    0.2356    2.5840 O.3       1 ACP        -0.4111
     17 C3'         1.0324    0.7610    1.7344 C.3       1 ACP         0.0927
     18 O3'         1.9175    0.2377    2.7247 O.3       1 ACP        -0.6127
     19 C2'         0.4468   -0.3802    0.9263 C.3       1 ACP         0.1095
     20 O2'         1.3993   -1.3703    0.5961 O.3       1 ACP        -0.5953
     21 C1'        -0.6159   -0.9100    1.8769 C.3       1 ACP         0.4273
     22 N9         -1.7127   -1.6108    1.2130 N.pl3     1 ACP        -0.6934
     23 C8         -2.1695   -1.3735   -0.0564 C.ar      1 ACP         0.5422
     24 N7         -3.1688   -2.1671   -0.3806 N.2       1 ACP        -0.5596
     25 C5         -3.3683   -2.9522    0.7270 C.ar      1 ACP        -0.2259
     26 C6         -4.2717   -3.9738    1.0025 C.ar      1 ACP         0.7526
     27 N6         -5.2165   -4.3746    0.0423 N.pl3     1 ACP        -0.9660
     28 N1         -4.2302   -4.5815    2.2126 N.ar      1 ACP        -0.8027
     29 C2         -3.2974   -4.1522    3.0967 C.ar      1 ACP         0.6758
     30 N3         -2.3737   -3.1778    2.9472 N.ar      1 ACP        -0.7221
     31 C4         -2.4717   -2.6214    1.7306 C.ar      1 ACP         0.5858
     32 HOG2       -2.3230    6.0029   -1.7597 H         1 ACP         0.4705
     33 HOG3       -4.5433    8.2117   -1.8706 H         1 ACP         0.4705
     34 H3B1       -5.2673    5.4074    0.7077 H         1 ACP         0.1189
     35 H3B2       -4.3174    4.1198   -0.0274 H         1 ACP         0.1189
     36 HOA2        1.3229    3.6919   -0.6217 H         1 ACP         0.4679
     37 H5'1       -1.9259    2.5372    1.9293 H         1 ACP         0.0587
     38 H5'2       -0.8477    2.1923    0.5521 H         1 ACP         0.0587
     39 H4'         0.0402    1.7079    3.4342 H         1 ACP         0.0938
     40 H3'         1.5907    1.4859    1.1353 H         1 ACP         0.0597
     41 HO3'        2.6839   -0.1150    2.2479 H         1 ACP         0.4554
     42 H2'        -0.0017    0.0018    0.0005 H         1 ACP         0.0710
     43 HO2'        0.9369   -2.0558    0.0825 H         1 ACP         0.4360
     44 H1'        -0.1998   -1.6319    2.6178 H         1 ACP         0.1247
     45 H8         -1.7364   -0.6145   -0.6934 H         1 ACP         0.0875
     46 HN61       -5.2686   -3.8865   -0.8317 H         1 ACP         0.4433
     47 HN62       -5.8889   -5.0800    0.2773 H         1 ACP         0.4433
     48 H2         -3.2930   -4.6606    4.0551 H         1 ACP         0.0459
@<TRIPOS>BOND
     1    1    2 2
     2    1    3 1
     3    1    4 1
     4    1    8 1
     5    3   32 1
     6    4   33 1
     7    5    6 2
     8    5    7 1
     9    5    8 1
    10    5   12 1
    11    8   34 1
    12    8   35 1
    13    9   10 2
    14    9   11 1
    15    9   12 1
    16    9   13 1
    17   11   36 1
    18   13   14 1
    19   14   15 1
    20   14   37 1
    21   14   38 1
    22   15   16 1
    23   15   17 1
    24   15   39 1
    25   16   21 1
    26   17   18 1
    27   17   19 1
    28   17   40 1
    29   18   41 1
    30   19   20 1
    31   19   21 1
    32   19   42 1
    33   20   43 1
    34   21   22 1
    35   21   44 1
    36   22   23 ar
    37   22   31 ar
    38   23   24 ar
    39   23   45 1
    40   24   25 ar
    41   25   26 ar
    42   25   31 ar
    43   26   27 1
    44   26   28 ar
    45   27   46 1
    46   27   47 1
    47   28   29 ar
    48   29   30 ar
    49   29   48 1
    50   30   31 ar
@<TRIPOS>SUBSTRUCTURE
     1 ACP         1 GROUP 0 A     ****
@<TRIPOS>MOLECULE
[[5-(6-aminopurin-9-yl)-3,4-dihydroxy-tetrahydrofuran-2-yl]methoxy-hydroxy-phosphoryl]oxy-(phosphonomethyl)phosphinate
   48    50     1     0     0
SMALL
USER_CHARGES

@<TRIPOS>ATOM
      1 PG          6.2617    0.8783   -4.0491 P.3       1 ACP         1.6292
      2 O1G         5.0341    0.7117   -3.2048 O.2       1 ACP        -0.8674
      3 O2G         7.3813   -0.2746   -3.8837 O.3       1 ACP        -0.7977
      4 O3G         6.0045    0.9334   -5.6430 O.3       1 ACP        -0.7977
      5 PB          7.9002    2.7991   -2.0721 P.3       1 ACP         1.4910
      6 O1B         8.5890    4.1387   -2.1936 O.co2     1 ACP        -0.8292
      7 O2B         8.6217    1.5631   -1.5872 O.co2     1 ACP        -0.8292
      8 C3B         7.1827    2.4002   -3.7296 C.3       1 ACP        -0.6453
      9 PA          6.2292    3.5136    0.2496 P.3       1 ACP         1.7996
     10 O1A         6.6927    4.9186    0.5045 O.2       1 ACP        -0.8588
     11 O2A         6.9320    2.3979    1.1869 O.3       1 ACP        -0.8037
     12 O3A         6.5026    2.9775   -1.2516 O.3       1 ACP        -0.7988
     13 O5'         4.6408    3.2691    0.4376 O.3       1 ACP        -0.5960
     14 C5'         4.0922    1.9801    0.2227 C.3       1 ACP         0.1917
     15 C4'         2.5944    2.0310    0.4653 C.3       1 ACP         0.0908
     16 O4'         1.9327    2.5740   -0.6889 O.3       1 ACP        -0.4111
     17 C3'         1.9685    0.6634    0.6767 C.3       1 ACP         0.0927
     18 O3'         2.1425    0.1975    1.9977 O.3       1 ACP        -0.6127
     19 C2'         0.5176    0.9128    0.3099 C.3       1 ACP         0.1095
     20 O2'        -0.2103    1.4454    1.4152 O.3       1 ACP        -0.5953
     21 C1'         0.6219    1.9765   -0.7844 C.3       1 ACP         0.4273
     22 N9          0.4237    1.4496   -2.1357 N.pl3     1 ACP        -0.6934
     23 C8         -0.5566    1.8304   -3.0133 C.ar      1 ACP         0.5422
     24 N7         -0.4788    1.1815   -4.1563 N.2       1 ACP        -0.5596
     25 C5          0.5985    0.3438   -4.0126 C.ar      1 ACP        -0.2259
     26 C6          1.1840   -0.5863   -4.8658 C.ar      1 ACP         0.7526
     27 N6          0.6656   -0.8050   -6.1536 N.pl3     1 ACP        -0.9660
     28 N1          2.2653   -1.2823   -4.4393 N.ar      1 ACP        -0.8027
     29 C2          2.7197   -1.0279   -3.1884 C.ar      1 ACP         0.6758
     30 N3          2.2404   -0.1568   -2.2739 N.ar      1 ACP        -0.7221
     31 C4          1.1743    0.4954   -2.7613 C.ar      1 ACP         0.5858
     32 HOG2        8.2055   -0.2161   -4.4123 H         1 ACP         0.4705
     33 HOG3        5.5818    0.1653   -6.0831 H         1 ACP         0.4705
     34 H3B1        8.0218    2.4215   -4.4341 H         1 ACP         0.1189
     35 H3B2        6.5294    3.2418   -3.9865 H         1 ACP         0.1189
     36 HOA2        6.8297    2.4637    2.1603 H         1 ACP         0.4679
     37 H5'1        4.3024    1.6721   -0.8067 H         1 ACP         0.0587
     38 H5'2        4.5673    1.2730    0.9105 H         1 ACP         0.0587
     39 H4'         2.3752    2.7029    1.3156 H         1 ACP         0.0938
     40 H3'         2.4336   -0.1217   -0.0016 H         1 ACP         0.0597
     41 HO3'        1.7160   -0.6716    2.0397 H         1 ACP         0.4554
     42 H2'         0.0316    0.0155   -0.0339 H         1 ACP         0.0710
     43 HO2'       -0.1608    0.7921    2.1351 H         1 ACP         0.4360
     44 H1'        -0.1474    2.7798   -0.6651 H         1 ACP         0.1247
     45 H8         -1.2942    2.5813   -2.7649 H         1 ACP         0.0875
     46 HN61       -0.1624   -0.3184   -6.4408 H         1 ACP         0.4433
     47 HN62        1.0729   -1.5128   -6.7350 H         1 ACP         0.4433
     48 H2          3.5863   -1.6031   -2.8800 H         1 ACP         0.0459
@<TRIPOS>BOND
     1    1    2 2
     2    1    3 1
     3    1    4 1
     4    1    8 1
     5    3   32 1
     6    4   33 1
     7    5    6 2
     8    5    7 1
     9    5    8 1
    10    5   12 1
    11    8   34 1
    12    8   35 1
    13    9   10 2
    14    9   11 1
    15    9   12 1
    16    9   13 1
    17   11   36 1
    18   13   14 1
    19   14   15 1
    20   14   37 1
    21   14   38 1
    22   15   16 1
    23   15   17 1
    24   15   39 1
    25   16   21 1
    26   17   18 1
    27   17   19 1
    28   17   40 1
    29   18   41 1
    30   19   20 1
    31   19   21 1
    32   19   42 1
    33   20   43 1
    34   21   22 1
    35   21   44 1
    36   22   23 ar
    37   22   31 ar
    38   23   24 ar
    39   23   45 1
    40   24   25 ar
    41   25   26 ar
    42   25   31 ar
    43   26   27 1
    44   26   28 ar
    45   27   46 1
    46   27   47 1
    47   28   29 ar
    48   29   30 ar
    49   29   48 1
    50   30   31 ar
@<TRIPOS>SUBSTRUCTURE
     1 ACP         1 GROUP 0 A     ****
@<TRIPOS>MOLECULE
[[5-(6-aminopurin-9-yl)-3,4-dihydroxy-tetrahydrofuran-2-yl]methoxy-hydroxy-phosphoryl]oxy-(phosphonomethyl)phosphinate
   48    50     1     0     0
SMALL
USER_CHARGES

@<TRIPOS>ATOM
      1 PG         -2.9119    7.5099   -0.8128 P.3       1 ACP         1.6292
      2 O1G        -2.9767    8.8343   -0.1134 O.2       1 ACP        -0.8674
      3 O2G        -4.0768    6.4603   -0.4238 O.3       1 ACP        -0.7977
      4 O3G        -2.9797    7.5736   -2.4256 O.3       1 ACP        -0.7977
      5 PB         -1.0759    4.9176   -1.2512 P.3       1 ACP         1.4910
      6 O1B         0.2805    4.4610   -0.7660 O.co2     1 ACP        -0.8292
      7 O2B        -1.4150    5.0160   -2.7204 O.co2     1 ACP        -0.8292
      8 C3B        -1.3940    6.5790   -0.5028 C.3       1 ACP        -0.6453
      9 PA         -2.5393    2.4968   -0.4201 P.3       1 ACP         1.7996
     10 O1A        -2.8231    1.8710   -1.7548 O.2       1 ACP        -0.8588
     11 O2A        -3.7479    2.3698    0.6478 O.3       1 ACP        -0.8037
     12 O3A        -2.2418    4.0857   -0.4722 O.3       1 ACP        -0.7988
     13 O5'        -1.2435    1.9111    0.3519 O.3       1 ACP        -0.5960
     14 C5'        -0.8811    2.4285    1.6206 C.3       1 ACP         0.1917
     15 C4'        -0.1994    1.3333    2.4288 C.3       1 ACP         0.0908
     16 O4'        -1.1285    0.2356    2.5840 O.3       1 ACP        -0.4111
     17 C3'         1.0324    0.7610    1.7344 C.3       1 ACP         0.0927
     18 O3'         1.9175    0.2377    2.7247 O.3       1 ACP        -0.6127
     19 C2'         0.4468   -0.3802    0.9263 C.3       1 ACP         0.1095
     20 O2'         1.3993   -1.3703    0.5961 O.3       1 ACP        -0.5953
     21 C1'        -0.6159   -0.9100    1.8769 C.3       1 ACP         0.4273
     22 N9         -1.7127   -1.6108    1.2130 N.pl3     1 ACP        -0.6934
     23 C8         -2.1695   -1.3735   -0.0564 C.ar      1 ACP         0.5422
     24 N7         -3.1688   -2.1671   -0.3806 N.2       1 ACP        -0.5596
     25 C5         -3.3683   -2.9522    0.7270 C.ar      1 ACP        -0.2259
     26 C6         -4.2717   -3.9738    1.0025 C.ar      1 ACP         0.7526
     27 N6         -5.2165   -4.3746    0.0423 N.pl3     1 ACP        -0.9660
     28 N1         -4.2302   -4.5815    2.2126 N.ar      1 ACP        -0.8027
     29 C2         -3.2974   -4.1522    3.0967 C.ar      1 ACP         0.6758
     30 N3         -2.3737   -3.1778    2.9472 N.ar      1 ACP        -0.7221
     31 C4         -2.4717   -2.6214    1.7306 C.ar      1 ACP         0.5858
     32 HOG2       -4.0834    5.5774   -0.8514 H         1 ACP         0.4705
     33 HOG3       -3.7696    7.9683   -2.8529 H         1 ACP         0.4705
     34 H3B1       -0.5580    7.2151   -0.8148 H         1 ACP         0.1189
     35 H3B2       -1.3047    6.4441    0.5812 H         1 ACP         0.1189
     36 HOA2       -4.0551    1.4766    0.9123 H         1 ACP         0.4679
     37 H5'1       -0.2031    3.2762    1.4777 H         1 ACP         0.0587
     38 H5'2       -1.7839    2.7764    2.1331 H         1 ACP         0.0587
     39 H4'         0.0402    1.7079    3.4342 H         1 ACP         0.0938
     40 H3'         1.5907    1.4859    1.1353 H         1 ACP         0.0597
     41 HO3'        2.6839   -0.1150    2.2479 H         1 ACP         0.4554
     42 H2'        -0.0017    0.0018    0.0005 H         1 ACP         0.0710
     43 HO2'        2.0953   -0.9375    0.0709 H         1 ACP         0.4360
     44 H1'        -0.1998   -1.6319    2.6178 H         1 ACP         0.1247
     45 H8         -1.7364   -0.6145   -0.6934 H         1 ACP         0.0875
     46 HN61       -5.2686   -3.8865   -0.8317 H         1 ACP         0.4433
     47 HN62       -5.8889   -5.0800    0.2773 H         1 ACP         0.4433
     48 H2         -3.2930   -4.6606    4.0551 H         1 ACP         0.0459
@<TRIPOS>BOND
     1    1    2 2
     2    1    3 1
     3    1    4 1
     4    1    8 1
     5    3   32 1
     6    4   33 1
     7    5    6 2
     8    5    7 1
     9    5    8 1
    10    5   12 1
    11    8   34 1
    12    8   35 1
    13    9   10 2
    14    9   11 1
    15    9   12 1
    16    9   13 1
    17   11   36 1
    18   13   14 1
    19   14   15 1
    20   14   37 1
    21   14   38 1
    22   15   16 1
    23   15   17 1
    24   15   39 1
    25   16   21 1
    26   17   18 1
    27   17   19 1
    28   17   40 1
    29   18   41 1
    30   19   20 1
    31   19   21 1
    32   19   42 1
    33   20   43 1
    34   21   22 1
    35   21   44 1
    36   22   23 ar
    37   22   31 ar
    38   23   24 ar
    39   23   45 1
    40   24   25 ar
    41   25   26 ar
    42   25   31 ar
    43   26   27 1
    44   26   28 ar
    45   27   46 1
    46   27   47 1
    47   28   29 ar
    48   29   30 ar
    49   29   48 1
    50   30   31 ar
@<TRIPOS>SUBSTRUCTURE
     1 ACP         1 GROUP 0 A     ****
@<TRIPOS>MOLECULE
[[5-(6-aminopurin-9-yl)-3,4-dihydroxy-tetrahydrofuran-2-yl]methoxy-hydroxy-phosphoryl]oxy-(phosphonomethyl)phosphinate
   48    50     1     0     0
SMALL
USER_CHARGES

@<TRIPOS>ATOM
      1 PG          0.0499    7.3858   -1.6082 P.3       1 ACP         1.6292
      2 O1G         0.2157    7.5346   -3.0906 O.2       1 ACP        -0.8674
      3 O2G         0.5982    8.6187   -0.7197 O.3       1 ACP        -0.7977
      4 O3G        -1.4704    7.1944   -1.0965 O.3       1 ACP        -0.7977
      5 PB          0.5298    4.2205   -1.4255 P.3       1 ACP         1.4910
      6 O1B         1.4326    3.3099   -0.6258 O.co2     1 ACP        -0.8292
      7 O2B         0.5016    4.2028   -2.9363 O.co2     1 ACP        -0.8292
      8 C3B         0.9023    5.9558   -0.9046 C.3       1 ACP        -0.6453
      9 PA         -1.9903    2.8601   -0.7251 P.3       1 ACP         1.7996
     10 O1A        -2.3239    2.2013   -2.0321 O.2       1 ACP        -0.8588
     11 O2A        -3.2682    3.4570    0.0674 O.3       1 ACP        -0.8037
     12 O3A        -0.9912    4.1261   -0.8460 O.3       1 ACP        -0.7988
     13 O5'        -1.2435    1.9111    0.3519 O.3       1 ACP        -0.5960
     14 C5'        -0.8811    2.4285    1.6206 C.3       1 ACP         0.1917
     15 C4'        -0.1994    1.3333    2.4288 C.3       1 ACP         0.0908
     16 O4'        -1.1285    0.2356    2.5840 O.3       1 ACP        -0.4111
     17 C3'         1.0324    0.7610    1.7344 C.3       1 ACP         0.0927
     18 O3'         1.9175    0.2377    2.7247 O.3       1 ACP        -0.6127
     19 C2'         0.4468   -0.3802    0.9263 C.3       1 ACP         0.1095
     20 O2'         1.3993   -1.3703    0.5961 O.3       1 ACP        -0.5953
     21 C1'        -0.6159   -0.9100    1.8769 C.3       1 ACP         0.4273
     22 N9         -1.7127   -1.6108    1.2130 N.pl3     1 ACP        -0.6934
     23 C8         -2.1695   -1.3735   -0.0564 C.ar      1 ACP         0.5422
     24 N7         -3.1688   -2.1671   -0.3806 N.2       1 ACP        -0.5596
     25 C5         -3.3683   -2.9522    0.7270 C.ar      1 ACP        -0.2259
     26 C6         -4.2717   -3.9738    1.0025 C.ar      1 ACP         0.7526
     27 N6         -5.2165   -4.3746    0.0423 N.pl3     1 ACP        -0.9660
     28 N1         -4.2302   -4.5815    2.2126 N.ar      1 ACP        -0.8027
     29 C2         -3.2974   -4.1522    3.0967 C.ar      1 ACP         0.6758
     30 N3         -2.3737   -3.1778    2.9472 N.ar      1 ACP        -0.7221
     31 C4         -2.4717   -2.6214    1.7306 C.ar      1 ACP         0.5858
     32 HOG2        0.2154    9.5112   -0.8575 H         1 ACP         0.4705
     33 HOG3       -1.6392    7.0920   -0.1356 H         1 ACP         0.4705
     34 H3B1        1.9737    6.1006   -1.0835 H         1 ACP         0.1189
     35 H3B2        0.7537    5.9837    0.1809 H         1 ACP         0.1189
     36 HOA2       -3.9880    2.8465    0.3345 H         1 ACP         0.4679
     37 H5'1       -0.2031    3.2762    1.4777 H         1 ACP         0.0587
     38 H5'2       -1.7839    2.7764    2.1331 H         1 ACP         0.0587
     39 H4'         0.0402    1.7079    3.4342 H         1 ACP         0.0938
     40 H3'         1.5907    1.4859    1.1353 H         1 ACP         0.0597
     41 HO3'        2.6839   -0.1150    2.2479 H         1 ACP         0.4554
     42 H2'        -0.0017    0.0018    0.0005 H         1 ACP         0.0710
     43 HO2'        2.0953   -0.9375    0.0709 H         1 ACP         0.4360
     44 H1'        -0.1998   -1.6319    2.6178 H         1 ACP         0.1247
     45 H8         -1.7364   -0.6145   -0.6934 H         1 ACP         0.0875
     46 HN61       -5.2686   -3.8865   -0.8317 H         1 ACP         0.4433
     47 HN62       -5.8889   -5.0800    0.2773 H         1 ACP         0.4433
     48 H2         -3.2930   -4.6606    4.0551 H         1 ACP         0.0459
@<TRIPOS>BOND
     1    1    2 2
     2    1    3 1
     3    1    4 1
     4    1    8 1
     5    3   32 1
     6    4   33 1
     7    5    6 2
     8    5    7 1
     9    5    8 1
    10    5   12 1
    11    8   34 1
    12    8   35 1
    13    9   10 2
    14    9   11 1
    15    9   12 1
    16    9   13 1
    17   11   36 1
    18   13   14 1
    19   14   15 1
    20   14   37 1
    21   14   38 1
    22   15   16 1
    23   15   17 1
    24   15   39 1
    25   16   21 1
    26   17   18 1
    27   17   19 1
    28   17   40 1
    29   18   41 1
    30   19   20 1
    31   19   21 1
    32   19   42 1
    33   20   43 1
    34   21   22 1
    35   21   44 1
    36   22   23 ar
    37   22   31 ar
    38   23   24 ar
    39   23   45 1
    40   24   25 ar
    41   25   26 ar
    42   25   31 ar
    43   26   27 1
    44   26   28 ar
    45   27   46 1
    46   27   47 1
    47   28   29 ar
    48   29   30 ar
    49   29   48 1
    50   30   31 ar
@<TRIPOS>SUBSTRUCTURE
     1 ACP         1 GROUP 0 A     ****
@<TRIPOS>MOLECULE
[[5-(6-aminopurin-9-yl)-3,4-dihydroxy-tetrahydrofuran-2-yl]methoxy-hydroxy-phosphoryl]oxy-(phosphonomethyl)phosphinate
   48    50     1     0     0
SMALL
USER_CHARGES

@<TRIPOS>ATOM
      1 PG         -5.3301    5.3537    4.3621 P.3       1 ACP         1.6292
      2 O1G        -5.2728    6.5918    5.2055 O.2       1 ACP        -0.8674
      3 O2G        -6.6567    4.4496    4.5431 O.3       1 ACP        -0.7977
      4 O3G        -5.2501    5.5972    2.7671 O.3       1 ACP        -0.7977
      5 PB         -2.2068    4.6298    4.4273 P.3       1 ACP         1.4910
      6 O1B        -1.3890    3.4079    4.7764 O.co2     1 ACP        -0.8292
      7 O2B        -1.9859    5.9658    5.0979 O.co2     1 ACP        -0.8292
      8 C3B        -3.9861    4.1842    4.6661 C.3       1 ACP        -0.6453
      9 PA         -1.0211    5.0514    1.7610 P.3       1 ACP         1.7996
     10 O1A        -0.2009    6.2833    2.0125 O.2       1 ACP        -0.8588
     11 O2A        -1.7535    5.0194    0.3188 O.3       1 ACP        -0.8037
     12 O3A        -2.2321    4.8245    2.8087 O.3       1 ACP        -0.7988
     13 O5'        -0.2069    3.6554    1.8412 O.3       1 ACP        -0.5960
     14 C5'        -0.8811    2.4285    1.6206 C.3       1 ACP         0.1917
     15 C4'        -0.1994    1.3333    2.4288 C.3       1 ACP         0.0908
     16 O4'        -1.1285    0.2356    2.5840 O.3       1 ACP        -0.4111
     17 C3'         1.0324    0.7610    1.7344 C.3       1 ACP         0.0927
     18 O3'         1.9175    0.2377    2.7247 O.3       1 ACP        -0.6127
     19 C2'         0.4468   -0.3802    0.9263 C.3       1 ACP         0.1095
     20 O2'         1.3993   -1.3703    0.5961 O.3       1 ACP        -0.5953
     21 C1'        -0.6159   -0.9100    1.8769 C.3       1 ACP         0.4273
     22 N9         -1.7127   -1.6108    1.2130 N.pl3     1 ACP        -0.6934
     23 C8         -2.1695   -1.3735   -0.0564 C.ar      1 ACP         0.5422
     24 N7         -3.1688   -2.1671   -0.3806 N.2       1 ACP        -0.5596
     25 C5         -3.3683   -2.9522    0.7270 C.ar      1 ACP        -0.2259
     26 C6         -4.2717   -3.9738    1.0025 C.ar      1 ACP         0.7526
     27 N6         -5.2165   -4.3746    0.0423 N.pl3     1 ACP        -0.9660
     28 N1         -4.2302   -4.5815    2.2126 N.ar      1 ACP        -0.8027
     29 C2         -3.2974   -4.1522    3.0967 C.ar      1 ACP         0.6758
     30 N3         -2.3737   -3.1778    2.9472 N.ar      1 ACP        -0.7221
     31 C4         -2.4717   -2.6214    1.7306 C.ar      1 ACP         0.5858
     32 HOG2       -7.5323    4.8454    4.3461 H         1 ACP         0.4705
     33 HOG3       -5.2831    4.8228    2.1658 H         1 ACP         0.4705
     34 H3B1       -4.0769    3.8544    5.7072 H         1 ACP         0.1189
     35 H3B2       -4.1644    3.3050    4.0365 H         1 ACP         0.1189
     36 HOA2       -2.3932    5.7288    0.0960 H         1 ACP         0.4679
     37 H5'1       -1.9259    2.5372    1.9293 H         1 ACP         0.0587
     38 H5'2       -0.8477    2.1923    0.5521 H         1 ACP         0.0587
     39 H4'         0.0402    1.7079    3.4342 H         1 ACP         0.0938
     40 H3'         1.5907    1.4859    1.1353 H         1 ACP         0.0597
     41 HO3'        2.6839   -0.1150    2.2479 H         1 ACP         0.4554
     42 H2'        -0.0017    0.0018    0.0005 H         1 ACP         0.0710
     43 HO2'        0.9369   -2.0558    0.0825 H         1 ACP         0.4360
     44 H1'        -0.1998   -1.6319    2.6178 H         1 ACP         0.1247
     45 H8         -1.7364   -0.6145   -0.6934 H         1 ACP         0.0875
     46 HN61       -5.2686   -3.8865   -0.8317 H         1 ACP         0.4433
     47 HN62       -5.8889   -5.0800    0.2773 H         1 ACP         0.4433
     48 H2         -3.2930   -4.6606    4.0551 H         1 ACP         0.0459
@<TRIPOS>BOND
     1    1    2 2
     2    1    3 1
     3    1    4 1
     4    1    8 1
     5    3   32 1
     6    4   33 1
     7    5    6 2
     8    5    7 1
     9    5    8 1
    10    5   12 1
    11    8   34 1
    12    8   35 1
    13    9   10 2
    14    9   11 1
    15    9   12 1
    16    9   13 1
    17   11   36 1
    18   13   14 1
    19   14   15 1
    20   14   37 1
    21   14   38 1
    22   15   16 1
    23   15   17 1
    24   15   39 1
    25   16   21 1
    26   17   18 1
    27   17   19 1
    28   17   40 1
    29   18   41 1
    30   19   20 1
    31   19   21 1
    32   19   42 1
    33   20   43 1
    34   21   22 1
    35   21   44 1
    36   22   23 ar
    37   22   31 ar
    38   23   24 ar
    39   23   45 1
    40   24   25 ar
    41   25   26 ar
    42   25   31 ar
    43   26   27 1
    44   26   28 ar
    45   27   46 1
    46   27   47 1
    47   28   29 ar
    48   29   30 ar
    49   29   48 1
    50   30   31 ar
@<TRIPOS>SUBSTRUCTURE
     1 ACP         1 GROUP 0 A     ****
@<TRIPOS>MOLECULE
[[5-(6-aminopurin-9-yl)-3,4-dihydroxy-tetrahydrofuran-2-yl]methoxy-hydroxy-phosphoryl]oxy-(phosphonomethyl)phosphinate
   48    50     1     0     0
SMALL
USER_CHARGES

@<TRIPOS>ATOM
      1 PG         -3.9273    6.5196    4.7589 P.3       1 ACP         1.6292
      2 O1G        -4.2707    6.8487    3.3372 O.2       1 ACP        -0.8674
      3 O2G        -3.2395    7.7135    5.6025 O.3       1 ACP        -0.7977
      4 O3G        -5.1708    6.0664    5.6853 O.3       1 ACP        -0.7977
      5 PB         -1.0551    5.1975    4.2251 P.3       1 ACP         1.4910
      6 O1B        -0.3840    3.8922    4.5849 O.co2     1 ACP        -0.8292
      7 O2B        -0.4535    6.5375    4.5801 O.co2     1 ACP        -0.8292
      8 C3B        -2.7586    5.1535    4.9444 C.3       1 ACP        -0.6453
      9 PA         -0.5525    5.0215    1.3253 P.3       1 ACP         1.7996
     10 O1A         0.4935    6.0854    1.1588 O.2       1 ACP        -0.8588
     11 O2A        -1.6302    4.9500    0.1208 O.3       1 ACP        -0.8037
     12 O3A        -1.4691    5.1810    2.6482 O.3       1 ACP        -0.7988
     13 O5'         0.0170    3.5129    1.4593 O.3       1 ACP        -0.5960
     14 C5'        -0.8811    2.4285    1.6206 C.3       1 ACP         0.1917
     15 C4'        -0.1994    1.3333    2.4288 C.3       1 ACP         0.0908
     16 O4'        -1.1285    0.2356    2.5840 O.3       1 ACP        -0.4111
     17 C3'         1.0324    0.7610    1.7344 C.3       1 ACP         0.0927
     18 O3'         1.9175    0.2377    2.7247 O.3       1 ACP        -0.6127
     19 C2'         0.4468   -0.3802    0.9263 C.3       1 ACP         0.1095
     20 O2'         1.3993   -1.3703    0.5961 O.3       1 ACP        -0.5953
     21 C1'        -0.6159   -0.9100    1.8769 C.3       1 ACP         0.4273
     22 N9         -1.7127   -1.6108    1.2130 N.pl3     1 ACP        -0.6934
     23 C8         -2.1695   -1.3735   -0.0564 C.ar      1 ACP         0.5422
     24 N7         -3.1688   -2.1671   -0.3806 N.2       1 ACP        -0.5596
     25 C5         -3.3683   -2.9522    0.7270 C.ar      1 ACP        -0.2259
     26 C6         -4.2717   -3.9738    1.0025 C.ar      1 ACP         0.7526
     27 N6         -5.2165   -4.3746    0.0423 N.pl3     1 ACP        -0.9660
     28 N1         -4.2302   -4.5815    2.2126 N.ar      1 ACP        -0.8027
     29 C2         -3.2974   -4.1522    3.0967 C.ar      1 ACP         0.6758
     30 N3         -2.3737   -3.1778    2.9472 N.ar      1 ACP        -0.7221
     31 C4         -2.4717   -2.6214    1.7306 C.ar      1 ACP         0.5858
     32 HOG2       -2.3875    8.0863    5.2906 H         1 ACP         0.4705
     33 HOG3       -5.9177    6.6887    5.8161 H         1 ACP         0.4705
     34 H3B1       -2.6274    4.9870    6.0196 H         1 ACP         0.1189
     35 H3B2       -3.2349    4.2539    4.5383 H         1 ACP         0.1189
     36 HOA2       -1.3125    4.7707   -0.7897 H         1 ACP         0.4679
     37 H5'1       -1.7775    2.7842    2.1389 H         1 ACP         0.0587
     38 H5'2       -1.1659    2.0534    0.6322 H         1 ACP         0.0587
     39 H4'         0.0402    1.7079    3.4342 H         1 ACP         0.0938
     40 H3'         1.5907    1.4859    1.1353 H         1 ACP         0.0597
     41 HO3'        2.1521    0.9800    3.3017 H         1 ACP         0.4554
     42 H2'        -0.0017    0.0018    0.0005 H         1 ACP         0.0710
     43 HO2'        0.9369   -2.0558    0.0825 H         1 ACP         0.4360
     44 H1'        -0.1998   -1.6319    2.6178 H         1 ACP         0.1247
     45 H8         -1.7364   -0.6145   -0.6934 H         1 ACP         0.0875
     46 HN61       -5.2686   -3.8865   -0.8317 H         1 ACP         0.4433
     47 HN62       -5.8889   -5.0800    0.2773 H         1 ACP         0.4433
     48 H2         -3.2930   -4.6606    4.0551 H         1 ACP         0.0459
@<TRIPOS>BOND
     1    1    2 2
     2    1    3 1
     3    1    4 1
     4    1    8 1
     5    3   32 1
     6    4   33 1
     7    5    6 2
     8    5    7 1
     9    5    8 1
    10    5   12 1
    11    8   34 1
    12    8   35 1
    13    9   10 2
    14    9   11 1
    15    9   12 1
    16    9   13 1
    17   11   36 1
    18   13   14 1
    19   14   15 1
    20   14   37 1
    21   14   38 1
    22   15   16 1
    23   15   17 1
    24   15   39 1
    25   16   21 1
    26   17   18 1
    27   17   19 1
    28   17   40 1
    29   18   41 1
    30   19   20 1
    31   19   21 1
    32   19   42 1
    33   20   43 1
    34   21   22 1
    35   21   44 1
    36   22   23 ar
    37   22   31 ar
    38   23   24 ar
    39   23   45 1
    40   24   25 ar
    41   25   26 ar
    42   25   31 ar
    43   26   27 1
    44   26   28 ar
    45   27   46 1
    46   27   47 1
    47   28   29 ar
    48   29   30 ar
    49   29   48 1
    50   30   31 ar
@<TRIPOS>SUBSTRUCTURE
     1 ACP         1 GROUP 0 A     ****
@<TRIPOS>MOLECULE
[[5-(6-aminopurin-9-yl)-3,4-dihydroxy-tetrahydrofuran-2-yl]methoxy-hydroxy-phosphoryl]oxy-(phosphonomethyl)phosphinate
   48    50     1     0     0
SMALL
USER_CHARGES

@<TRIPOS>ATOM
      1 PG          6.3123   -0.3838   -3.4721 P.3       1 ACP         1.6292
      2 O1G         7.1662   -1.4433   -2.8430 O.2       1 ACP        -0.8674
      3 O2G         5.7521   -0.7275   -4.9480 O.3       1 ACP        -0.7977
      4 O3G         4.9840    0.0177   -2.6448 O.3       1 ACP        -0.7977
      5 PB          7.8432    2.1753   -2.2932 P.3       1 ACP         1.4910
      6 O1B         8.4548    3.4294   -2.8736 O.co2     1 ACP        -0.8292
      7 O2B         8.6345    1.2155   -1.4352 O.co2     1 ACP        -0.8292
      8 C3B         7.1462    1.2028   -3.7038 C.3       1 ACP        -0.6453
      9 PA          6.1389    3.5429   -0.3138 P.3       1 ACP         1.7996
     10 O1A         6.5226    4.9737   -0.5571 O.2       1 ACP        -0.8588
     11 O2A         6.9057    2.8480    0.9299 O.3       1 ACP        -0.8037
     12 O3A         6.4393    2.5464   -1.5517 O.3       1 ACP        -0.7988
     13 O5'         4.5673    3.2930   -0.0211 O.3       1 ACP        -0.5960
     14 C5'         4.0922    1.9801    0.2227 C.3       1 ACP         0.1917
     15 C4'         2.5944    2.0310    0.4653 C.3       1 ACP         0.0908
     16 O4'         1.9327    2.5740   -0.6889 O.3       1 ACP        -0.4111
     17 C3'         1.9685    0.6634    0.6767 C.3       1 ACP         0.0927
     18 O3'         2.1425    0.1975    1.9977 O.3       1 ACP        -0.6127
     19 C2'         0.5176    0.9128    0.3099 C.3       1 ACP         0.1095
     20 O2'        -0.2103    1.4454    1.4152 O.3       1 ACP        -0.5953
     21 C1'         0.6219    1.9765   -0.7844 C.3       1 ACP         0.4273
     22 N9          0.4237    1.4496   -2.1357 N.pl3     1 ACP        -0.6934
     23 C8         -0.6990    0.8143   -2.5962 C.ar      1 ACP         0.5422
     24 N7         -0.5842    0.4561   -3.8580 N.2       1 ACP        -0.5596
     25 C5          0.6674    0.8775   -4.2308 C.ar      1 ACP        -0.2259
     26 C6          1.3671    0.7929   -5.4304 C.ar      1 ACP         0.7526
     27 N6          0.7907    0.1795   -6.5558 N.pl3     1 ACP        -0.9660
     28 N1          2.6167    1.3114   -5.5022 N.ar      1 ACP        -0.8027
     29 C2          3.1190    1.8905   -4.3849 C.ar      1 ACP         0.6758
     30 N3          2.5420    2.0322   -3.1717 N.ar      1 ACP        -0.7221
     31 C4          1.3113    1.4986   -3.1725 C.ar      1 ACP         0.5858
     32 HOG2        5.1821   -1.5167   -5.0682 H         1 ACP         0.4705
     33 HOG3        4.3872    0.7059   -3.0088 H         1 ACP         0.4705
     34 H3B1        7.9814    1.0290   -4.3917 H         1 ACP         0.1189
     35 H3B2        6.4458    1.8726   -4.2155 H         1 ACP         0.1189
     36 HOA2        6.8017    3.2332    1.8260 H         1 ACP         0.4679
     37 H5'1        4.3175    1.3541   -0.6468 H         1 ACP         0.0587
     38 H5'2        4.6079    1.5730    1.0985 H         1 ACP         0.0587
     39 H4'         2.3752    2.7029    1.3156 H         1 ACP         0.0938
     40 H3'         2.4336   -0.1217   -0.0016 H         1 ACP         0.0597
     41 HO3'        1.7160   -0.6716    2.0397 H         1 ACP         0.4554
     42 H2'         0.0316    0.0155   -0.0339 H         1 ACP         0.0710
     43 HO2'       -0.1608    0.7921    2.1351 H         1 ACP         0.4360
     44 H1'        -0.1474    2.7798   -0.6651 H         1 ACP         0.1247
     45 H8         -1.5636    0.6429   -1.9696 H         1 ACP         0.0875
     46 HN61       -0.1155   -0.2418   -6.4776 H         1 ACP         0.4433
     47 HN62        1.3291    0.0869   -7.3963 H         1 ACP         0.4433
     48 H2          4.1215    2.2946   -4.4783 H         1 ACP         0.0459
@<TRIPOS>BOND
     1    1    2 2
     2    1    3 1
     3    1    4 1
     4    1    8 1
     5    3   32 1
     6    4   33 1
     7    5    6 2
     8    5    7 1
     9    5    8 1
    10    5   12 1
    11    8   34 1
    12    8   35 1
    13    9   10 2
    14    9   11 1
    15    9   12 1
    16    9   13 1
    17   11   36 1
    18   13   14 1
    19   14   15 1
    20   14   37 1
    21   14   38 1
    22   15   16 1
    23   15   17 1
    24   15   39 1
    25   16   21 1
    26   17   18 1
    27   17   19 1
    28   17   40 1
    29   18   41 1
    30   19   20 1
    31   19   21 1
    32   19   42 1
    33   20   43 1
    34   21   22 1
    35   21   44 1
    36   22   23 ar
    37   22   31 ar
    38   23   24 ar
    39   23   45 1
    40   24   25 ar
    41   25   26 ar
    42   25   31 ar
    43   26   27 1
    44   26   28 ar
    45   27   46 1
    46   27   47 1
    47   28   29 ar
    48   29   30 ar
    49   29   48 1
    50   30   31 ar
@<TRIPOS>SUBSTRUCTURE
     1 ACP         1 GROUP 0 A     ****
@<TRIPOS>MOLECULE
[[5-(6-aminopurin-9-yl)-3,4-dihydroxy-tetrahydrofuran-2-yl]methoxy-hydroxy-phosphoryl]oxy-(phosphonomethyl)phosphinate
   48    50     1     0     0
SMALL
USER_CHARGES

@<TRIPOS>ATOM
      1 PG         -3.3484    5.9704   -2.5307 P.3       1 ACP         1.6292
      2 O1G        -3.0062    5.9550   -3.9902 O.2       1 ACP        -0.8674
      3 O2G        -2.2865    6.7249   -1.5752 O.3       1 ACP        -0.7977
      4 O3G        -4.7580    6.6653   -2.1565 O.3       1 ACP        -0.7977
      5 PB         -3.9014    4.0850    0.0035 P.3       1 ACP         1.4910
      6 O1B        -3.9281    2.5951    0.2552 O.co2     1 ACP        -0.8292
      7 O2B        -5.0805    4.9764    0.3174 O.co2     1 ACP        -0.8292
      8 C3B        -3.4882    4.3311   -1.7826 C.3       1 ACP        -0.6453
      9 PA         -2.0141    4.7372    2.1728 P.3       1 ACP         1.7996
     10 O1A        -2.9324    5.4191    3.1452 O.2       1 ACP        -0.8588
     11 O2A        -0.5452    5.4055    2.0600 O.3       1 ACP        -0.8037
     12 O3A        -2.5444    4.7218    0.6450 O.3       1 ACP        -0.7988
     13 O5'        -1.7334    3.1724    2.4742 O.3       1 ACP        -0.5960
     14 C5'        -0.8811    2.4285    1.6206 C.3       1 ACP         0.1917
     15 C4'        -0.1994    1.3333    2.4288 C.3       1 ACP         0.0908
     16 O4'        -1.1285    0.2356    2.5840 O.3       1 ACP        -0.4111
     17 C3'         1.0324    0.7610    1.7344 C.3       1 ACP         0.0927
     18 O3'         1.9175    0.2377    2.7247 O.3       1 ACP        -0.6127
     19 C2'         0.4468   -0.3802    0.9263 C.3       1 ACP         0.1095
     20 O2'         1.3993   -1.3703    0.5961 O.3       1 ACP        -0.5953
     21 C1'        -0.6159   -0.9100    1.8769 C.3       1 ACP         0.4273
     22 N9         -1.7127   -1.6108    1.2130 N.pl3     1 ACP        -0.6934
     23 C8         -2.0877   -2.9101    1.4304 C.ar      1 ACP         0.5422
     24 N7         -3.1152   -3.2613    0.6857 N.2       1 ACP        -0.5596
     25 C5         -3.4186   -2.1409   -0.0462 C.ar      1 ACP        -0.2259
     26 C6         -4.3953   -1.8809   -1.0023 C.ar      1 ACP         0.7526
     27 N6         -5.3118   -2.8767   -1.3812 N.pl3     1 ACP        -0.9660
     28 N1         -4.4538   -0.6507   -1.5667 N.ar      1 ACP        -0.8027
     29 C2         -3.5442    0.2679   -1.1609 C.ar      1 ACP         0.6758
     30 N3         -2.5561    0.1361   -0.2491 N.ar      1 ACP        -0.7221
     31 C4         -2.5568   -1.1019    0.2674 C.ar      1 ACP         0.5858
     32 HOG2       -2.4600    6.7656   -0.6106 H         1 ACP         0.4705
     33 HOG3       -4.8996    7.6080   -2.3882 H         1 ACP         0.4705
     34 H3B1       -4.2528    3.7849   -2.3466 H         1 ACP         0.1189
     35 H3B2       -2.5379    3.8106   -1.9473 H         1 ACP         0.1189
     36 HOA2        0.0181    5.4505    2.8618 H         1 ACP         0.4679
     37 H5'1       -1.4795    1.9921    0.8142 H         1 ACP         0.0587
     38 H5'2       -0.1362    3.1035    1.1868 H         1 ACP         0.0587
     39 H4'         0.0402    1.7079    3.4342 H         1 ACP         0.0938
     40 H3'         1.5907    1.4859    1.1353 H         1 ACP         0.0597
     41 HO3'        2.6839   -0.1150    2.2479 H         1 ACP         0.4554
     42 H2'        -0.0017    0.0018    0.0005 H         1 ACP         0.0710
     43 HO2'        0.9369   -2.0558    0.0825 H         1 ACP         0.4360
     44 H1'        -0.1998   -1.6319    2.6178 H         1 ACP         0.1247
     45 H8         -1.5778   -3.5473    2.1399 H         1 ACP         0.0875
     46 HN61       -5.2294   -3.7965   -0.9914 H         1 ACP         0.4433
     47 HN62       -5.9774   -2.6837   -2.1055 H         1 ACP         0.4433
     48 H2         -3.6201    1.2414   -1.6336 H         1 ACP         0.0459
@<TRIPOS>BOND
     1    1    2 2
     2    1    3 1
     3    1    4 1
     4    1    8 1
     5    3   32 1
     6    4   33 1
     7    5    6 2
     8    5    7 1
     9    5    8 1
    10    5   12 1
    11    8   34 1
    12    8   35 1
    13    9   10 2
    14    9   11 1
    15    9   12 1
    16    9   13 1
    17   11   36 1
    18   13   14 1
    19   14   15 1
    20   14   37 1
    21   14   38 1
    22   15   16 1
    23   15   17 1
    24   15   39 1
    25   16   21 1
    26   17   18 1
    27   17   19 1
    28   17   40 1
    29   18   41 1
    30   19   20 1
    31   19   21 1
    32   19   42 1
    33   20   43 1
    34   21   22 1
    35   21   44 1
    36   22   23 ar
    37   22   31 ar
    38   23   24 ar
    39   23   45 1
    40   24   25 ar
    41   25   26 ar
    42   25   31 ar
    43   26   27 1
    44   26   28 ar
    45   27   46 1
    46   27   47 1
    47   28   29 ar
    48   29   30 ar
    49   29   48 1
    50   30   31 ar
@<TRIPOS>SUBSTRUCTURE
     1 ACP         1 GROUP 0 A     ****
@<TRIPOS>MOLECULE
[[5-(6-aminopurin-9-yl)-3,4-dihydroxy-tetrahydrofuran-2-yl]methoxy-hydroxy-phosphoryl]oxy-(phosphonomethyl)phosphinate
   48    50     1     0     0
SMALL
USER_CHARGES

@<TRIPOS>ATOM
      1 PG          8.3264    0.6133   -3.7860 P.3       1 ACP         1.6292
      2 O1G         9.0983    0.7822   -2.5120 O.2       1 ACP        -0.8674
      3 O2G         8.7711    1.5796   -5.0020 O.3       1 ACP        -0.7977
      4 O3G         8.3769   -0.8647   -4.4363 O.3       1 ACP        -0.7977
      5 PB          5.8821    2.5666   -3.0839 P.3       1 ACP         1.4910
      6 O1B         4.3755    2.4501   -3.0751 O.co2     1 ACP        -0.8292
      7 O2B         6.6032    3.6336   -3.8744 O.co2     1 ACP        -0.8292
      8 C3B         6.5543    0.9319   -3.6294 C.3       1 ACP        -0.6453
      9 PA          6.1389    3.5429   -0.3138 P.3       1 ACP         1.7996
     10 O1A         6.5226    4.9737   -0.5571 O.2       1 ACP        -0.8588
     11 O2A         6.9057    2.8480    0.9299 O.3       1 ACP        -0.8037
     12 O3A         6.4393    2.5464   -1.5517 O.3       1 ACP        -0.7988
     13 O5'         4.5673    3.2930   -0.0211 O.3       1 ACP        -0.5960
     14 C5'         4.0922    1.9801    0.2227 C.3       1 ACP         0.1917
     15 C4'         2.5944    2.0310    0.4653 C.3       1 ACP         0.0908
     16 O4'         1.9327    2.5740   -0.6889 O.3       1 ACP        -0.4111
     17 C3'         1.9685    0.6634    0.6767 C.3       1 ACP         0.0927
     18 O3'         2.1425    0.1975    1.9977 O.3       1 ACP        -0.6127
     19 C2'         0.5176    0.9128    0.3099 C.3       1 ACP         0.1095
     20 O2'        -0.2103    1.4454    1.4152 O.3       1 ACP        -0.5953
     21 C1'         0.6219    1.9765   -0.7844 C.3       1 ACP         0.4273
     22 N9          0.4237    1.4496   -2.1357 N.pl3     1 ACP        -0.6934
     23 C8          1.3280    1.5049   -3.1629 C.ar      1 ACP         0.5422
     24 N7          0.8669    0.9430   -4.2608 N.2       1 ACP        -0.5596
     25 C5         -0.3909    0.5052   -3.9303 C.ar      1 ACP        -0.2259
     26 C6         -1.3732   -0.1610   -4.6563 C.ar      1 ACP         0.7526
     27 N6         -1.1592   -0.5106   -6.0006 N.pl3     1 ACP        -0.9660
     28 N1         -2.5443   -0.4711   -4.0498 N.ar      1 ACP        -0.8027
     29 C2         -2.6923   -0.1087   -2.7527 C.ar      1 ACP         0.6758
     30 N3         -1.8193    0.5362   -1.9484 N.ar      1 ACP        -0.7221
     31 C4         -0.6860    0.8110   -2.6113 C.ar      1 ACP         0.5858
     32 HOG2        8.7147    2.5515   -4.8818 H         1 ACP         0.4705
     33 HOG3        9.2450   -1.2401   -4.6965 H         1 ACP         0.4705
     34 H3B1        6.1045    0.7329   -4.6087 H         1 ACP         0.1189
     35 H3B2        6.1454    0.1900   -2.9341 H         1 ACP         0.1189
     36 HOA2        7.8845    2.7870    0.9092 H         1 ACP         0.4679
     37 H5'1        4.3175    1.3541   -0.6468 H         1 ACP         0.0587
     38 H5'2        4.6079    1.5730    1.0985 H         1 ACP         0.0587
     39 H4'         2.3752    2.7029    1.3156 H         1 ACP         0.0938
     40 H3'         2.4336   -0.1217   -0.0016 H         1 ACP         0.0597
     41 HO3'        1.7160   -0.6716    2.0397 H         1 ACP         0.4554
     42 H2'         0.0316    0.0155   -0.0339 H         1 ACP         0.0710
     43 HO2'       -0.1608    0.7921    2.1351 H         1 ACP         0.4360
     44 H1'        -0.1474    2.7798   -0.6651 H         1 ACP         0.1247
     45 H8          2.3008    1.9640   -3.0518 H         1 ACP         0.0875
     46 HN61       -0.3077   -0.2348   -6.4521 H         1 ACP         0.4433
     47 HN62       -1.8970   -0.9480   -6.5194 H         1 ACP         0.4433
     48 H2         -3.6419   -0.3724   -2.2992 H         1 ACP         0.0459
@<TRIPOS>BOND
     1    1    2 2
     2    1    3 1
     3    1    4 1
     4    1    8 1
     5    3   32 1
     6    4   33 1
     7    5    6 2
     8    5    7 1
     9    5    8 1
    10    5   12 1
    11    8   34 1
    12    8   35 1
    13    9   10 2
    14    9   11 1
    15    9   12 1
    16    9   13 1
    17   11   36 1
    18   13   14 1
    19   14   15 1
    20   14   37 1
    21   14   38 1
    22   15   16 1
    23   15   17 1
    24   15   39 1
    25   16   21 1
    26   17   18 1
    27   17   19 1
    28   17   40 1
    29   18   41 1
    30   19   20 1
    31   19   21 1
    32   19   42 1
    33   20   43 1
    34   21   22 1
    35   21   44 1
    36   22   23 ar
    37   22   31 ar
    38   23   24 ar
    39   23   45 1
    40   24   25 ar
    41   25   26 ar
    42   25   31 ar
    43   26   27 1
    44   26   28 ar
    45   27   46 1
    46   27   47 1
    47   28   29 ar
    48   29   30 ar
    49   29   48 1
    50   30   31 ar
@<TRIPOS>SUBSTRUCTURE
     1 ACP         1 GROUP 0 A     ****
@<TRIPOS>MOLECULE
[[5-(6-aminopurin-9-yl)-3,4-dihydroxy-tetrahydrofuran-2-yl]methoxy-hydroxy-phosphoryl]oxy-(phosphonomethyl)phosphinate
   48    50     1     0     0
SMALL
USER_CHARGES

@<TRIPOS>ATOM
      1 PG         -5.0019    3.7910   -1.4557 P.3       1 ACP         1.6292
      2 O1G        -4.6689    2.6805   -0.5053 O.2       1 ACP        -0.8674
      3 O2G        -5.4041    3.3296   -2.9509 O.3       1 ACP        -0.7977
      4 O3G        -6.2286    4.7422   -1.0080 O.3       1 ACP        -0.7977
      5 PB         -2.9014    5.9532   -0.3623 P.3       1 ACP         1.4910
      6 O1B        -4.0033    6.7944    0.2391 O.co2     1 ACP        -0.8292
      7 O2B        -1.6253    6.5600   -0.8977 O.co2     1 ACP        -0.8292
      8 C3B        -3.6539    4.9629   -1.7314 C.3       1 ACP        -0.6453
      9 PA         -2.0141    4.7372    2.1728 P.3       1 ACP         1.7996
     10 O1A        -2.9324    5.4191    3.1452 O.2       1 ACP        -0.8588
     11 O2A        -0.5452    5.4055    2.0600 O.3       1 ACP        -0.8037
     12 O3A        -2.5444    4.7218    0.6450 O.3       1 ACP        -0.7988
     13 O5'        -1.7334    3.1724    2.4742 O.3       1 ACP        -0.5960
     14 C5'        -0.8811    2.4285    1.6206 C.3       1 ACP         0.1917
     15 C4'        -0.1994    1.3333    2.4288 C.3       1 ACP         0.0908
     16 O4'        -1.1285    0.2356    2.5840 O.3       1 ACP        -0.4111
     17 C3'         1.0324    0.7610    1.7344 C.3       1 ACP         0.0927
     18 O3'         1.9175    0.2377    2.7247 O.3       1 ACP        -0.6127
     19 C2'         0.4468   -0.3802    0.9263 C.3       1 ACP         0.1095
     20 O2'         1.3993   -1.3703    0.5961 O.3       1 ACP        -0.5953
     21 C1'        -0.6159   -0.9100    1.8769 C.3       1 ACP         0.4273
     22 N9         -1.7127   -1.6108    1.2130 N.pl3     1 ACP        -0.6934
     23 C8         -2.0877   -2.9101    1.4304 C.ar      1 ACP         0.5422
     24 N7         -3.1152   -3.2613    0.6857 N.2       1 ACP        -0.5596
     25 C5         -3.4186   -2.1409   -0.0462 C.ar      1 ACP        -0.2259
     26 C6         -4.3953   -1.8809   -1.0023 C.ar      1 ACP         0.7526
     27 N6         -5.3118   -2.8767   -1.3812 N.pl3     1 ACP        -0.9660
     28 N1         -4.4538   -0.6507   -1.5667 N.ar      1 ACP        -0.8027
     29 C2         -3.5442    0.2679   -1.1609 C.ar      1 ACP         0.6758
     30 N3         -2.5561    0.1361   -0.2491 N.ar      1 ACP        -0.7221
     31 C4         -2.5568   -1.1019    0.2674 C.ar      1 ACP         0.5858
     32 HOG2       -5.6317    4.0149   -3.6148 H         1 ACP         0.4705
     33 HOG3       -7.1148    4.3435   -0.8738 H         1 ACP         0.4705
     34 H3B1       -2.8293    4.4025   -2.1863 H         1 ACP         0.1189
     35 H3B2       -3.9953    5.6896   -2.4774 H         1 ACP         0.1189
     36 HOA2        0.0181    5.4505    2.8618 H         1 ACP         0.4679
     37 H5'1       -1.4795    1.9921    0.8142 H         1 ACP         0.0587
     38 H5'2       -0.1362    3.1035    1.1868 H         1 ACP         0.0587
     39 H4'         0.0402    1.7079    3.4342 H         1 ACP         0.0938
     40 H3'         1.5907    1.4859    1.1353 H         1 ACP         0.0597
     41 HO3'        2.1521    0.9800    3.3017 H         1 ACP         0.4554
     42 H2'        -0.0017    0.0018    0.0005 H         1 ACP         0.0710
     43 HO2'        0.9369   -2.0558    0.0825 H         1 ACP         0.4360
     44 H1'        -0.1998   -1.6319    2.6178 H         1 ACP         0.1247
     45 H8         -1.5778   -3.5473    2.1399 H         1 ACP         0.0875
     46 HN61       -5.2294   -3.7965   -0.9914 H         1 ACP         0.4433
     47 HN62       -5.9774   -2.6837   -2.1055 H         1 ACP         0.4433
     48 H2         -3.6201    1.2414   -1.6336 H         1 ACP         0.0459
@<TRIPOS>BOND
     1    1    2 2
     2    1    3 1
     3    1    4 1
     4    1    8 1
     5    3   32 1
     6    4   33 1
     7    5    6 2
     8    5    7 1
     9    5    8 1
    10    5   12 1
    11    8   34 1
    12    8   35 1
    13    9   10 2
    14    9   11 1
    15    9   12 1
    16    9   13 1
    17   11   36 1
    18   13   14 1
    19   14   15 1
    20   14   37 1
    21   14   38 1
    22   15   16 1
    23   15   17 1
    24   15   39 1
    25   16   21 1
    26   17   18 1
    27   17   19 1
    28   17   40 1
    29   18   41 1
    30   19   20 1
    31   19   21 1
    32   19   42 1
    33   20   43 1
    34   21   22 1
    35   21   44 1
    36   22   23 ar
    37   22   31 ar
    38   23   24 ar
    39   23   45 1
    40   24   25 ar
    41   25   26 ar
    42   25   31 ar
    43   26   27 1
    44   26   28 ar
    45   27   46 1
    46   27   47 1
    47   28   29 ar
    48   29   30 ar
    49   29   48 1
    50   30   31 ar
@<TRIPOS>SUBSTRUCTURE
     1 ACP         1 GROUP 0 A     ****
@<TRIPOS>MOLECULE
[[5-(6-aminopurin-9-yl)-3,4-dihydroxy-tetrahydrofuran-2-yl]methoxy-hydroxy-phosphoryl]oxy-(phosphonomethyl)phosphinate
   48    50     1     0     0
SMALL
USER_CHARGES

@<TRIPOS>ATOM
      1 PG         -1.9480    3.7332   -2.5151 P.3       1 ACP         1.6292
      2 O1G        -1.7561    2.2493   -2.4220 O.2       1 ACP        -0.8674
      3 O2G        -0.8181    4.6278   -1.7848 O.3       1 ACP        -0.7977
      4 O3G        -1.9982    4.3330   -4.0142 O.3       1 ACP        -0.7977
      5 PB         -3.9014    4.0850    0.0035 P.3       1 ACP         1.4910
      6 O1B        -3.9281    2.5951    0.2552 O.co2     1 ACP        -0.8292
      7 O2B        -5.0805    4.9764    0.3174 O.co2     1 ACP        -0.8292
      8 C3B        -3.4882    4.3311   -1.7826 C.3       1 ACP        -0.6453
      9 PA         -2.0141    4.7372    2.1728 P.3       1 ACP         1.7996
     10 O1A        -2.9324    5.4191    3.1452 O.2       1 ACP        -0.8588
     11 O2A        -0.5452    5.4055    2.0600 O.3       1 ACP        -0.8037
     12 O3A        -2.5444    4.7218    0.6450 O.3       1 ACP        -0.7988
     13 O5'        -1.7334    3.1724    2.4742 O.3       1 ACP        -0.5960
     14 C5'        -0.8811    2.4285    1.6206 C.3       1 ACP         0.1917
     15 C4'        -0.1994    1.3333    2.4288 C.3       1 ACP         0.0908
     16 O4'        -1.1285    0.2356    2.5840 O.3       1 ACP        -0.4111
     17 C3'         1.0324    0.7610    1.7344 C.3       1 ACP         0.0927
     18 O3'         1.9175    0.2377    2.7247 O.3       1 ACP        -0.6127
     19 C2'         0.4468   -0.3802    0.9263 C.3       1 ACP         0.1095
     20 O2'         1.3993   -1.3703    0.5961 O.3       1 ACP        -0.5953
     21 C1'        -0.6159   -0.9100    1.8769 C.3       1 ACP         0.4273
     22 N9         -1.7127   -1.6108    1.2130 N.pl3     1 ACP        -0.6934
     23 C8         -2.0877   -2.9101    1.4304 C.ar      1 ACP         0.5422
     24 N7         -3.1152   -3.2613    0.6857 N.2       1 ACP        -0.5596
     25 C5         -3.4186   -2.1409   -0.0462 C.ar      1 ACP        -0.2259
     26 C6         -4.3953   -1.8809   -1.0023 C.ar      1 ACP         0.7526
     27 N6         -5.3118   -2.8767   -1.3812 N.pl3     1 ACP        -0.9660
     28 N1         -4.4538   -0.6507   -1.5667 N.ar      1 ACP        -0.8027
     29 C2         -3.5442    0.2679   -1.1609 C.ar      1 ACP         0.6758
     30 N3         -2.5561    0.1361   -0.2491 N.ar      1 ACP        -0.7221
     31 C4         -2.5568   -1.1019    0.2674 C.ar      1 ACP         0.5858
     32 HOG2       -0.6784    4.5219   -0.8197 H         1 ACP         0.4705
     33 HOG3       -1.2217    4.2111   -4.6012 H         1 ACP         0.4705
     34 H3B1       -3.5268    5.4127   -1.9544 H         1 ACP         0.1189
     35 H3B2       -4.3164    3.8888   -2.3479 H         1 ACP         0.1189
     36 HOA2        0.0181    5.4505    2.8618 H         1 ACP         0.4679
     37 H5'1       -1.4795    1.9921    0.8142 H         1 ACP         0.0587
     38 H5'2       -0.1362    3.1035    1.1868 H         1 ACP         0.0587
     39 H4'         0.0402    1.7079    3.4342 H         1 ACP         0.0938
     40 H3'         1.5907    1.4859    1.1353 H         1 ACP         0.0597
     41 HO3'        2.6839   -0.1150    2.2479 H         1 ACP         0.4554
     42 H2'        -0.0017    0.0018    0.0005 H         1 ACP         0.0710
     43 HO2'        2.0953   -0.9375    0.0709 H         1 ACP         0.4360
     44 H1'        -0.1998   -1.6319    2.6178 H         1 ACP         0.1247
     45 H8         -1.5778   -3.5473    2.1399 H         1 ACP         0.0875
     46 HN61       -5.2294   -3.7965   -0.9914 H         1 ACP         0.4433
     47 HN62       -5.9774   -2.6837   -2.1055 H         1 ACP         0.4433
     48 H2         -3.6201    1.2414   -1.6336 H         1 ACP         0.0459
@<TRIPOS>BOND
     1    1    2 2
     2    1    3 1
     3    1    4 1
     4    1    8 1
     5    3   32 1
     6    4   33 1
     7    5    6 2
     8    5    7 1
     9    5    8 1
    10    5   12 1
    11    8   34 1
    12    8   35 1
    13    9   10 2
    14    9   11 1
    15    9   12 1
    16    9   13 1
    17   11   36 1
    18   13   14 1
    19   14   15 1
    20   14   37 1
    21   14   38 1
    22   15   16 1
    23   15   17 1
    24   15   39 1
    25   16   21 1
    26   17   18 1
    27   17   19 1
    28   17   40 1
    29   18   41 1
    30   19   20 1
    31   19   21 1
    32   19   42 1
    33   20   43 1
    34   21   22 1
    35   21   44 1
    36   22   23 ar
    37   22   31 ar
    38   23   24 ar
    39   23   45 1
    40   24   25 ar
    41   25   26 ar
    42   25   31 ar
    43   26   27 1
    44   26   28 ar
    45   27   46 1
    46   27   47 1
    47   28   29 ar
    48   29   30 ar
    49   29   48 1
    50   30   31 ar
@<TRIPOS>SUBSTRUCTURE
     1 ACP         1 GROUP 0 A     ****
@<TRIPOS>MOLECULE
[[5-(6-aminopurin-9-yl)-3,4-dihydroxy-tetrahydrofuran-2-yl]methoxy-hydroxy-phosphoryl]oxy-(phosphonomethyl)phosphinate
   48    50     1     0     0
SMALL
USER_CHARGES

@<TRIPOS>ATOM
      1 PG          4.0639    0.2607   -4.3829 P.3       1 ACP         1.6292
      2 O1G         4.9676   -0.9354   -4.3926 O.2       1 ACP        -0.8674
      3 O2G         2.8544    0.2273   -5.4534 O.3       1 ACP        -0.7977
      4 O3G         3.3216    0.5573   -2.9790 O.3       1 ACP        -0.7977
      5 PB          6.2762    2.4804   -3.7038 P.3       1 ACP         1.4910
      6 O1B         6.7108    3.7932   -4.3133 O.co2     1 ACP        -0.8292
      7 O2B         7.2417    1.3416   -3.4704 O.co2     1 ACP        -0.8292
      8 C3B         4.8956    1.8239   -4.7450 C.3       1 ACP        -0.6453
      9 PA          5.8506    3.5236   -0.9792 P.3       1 ACP         1.7996
     10 O1A         6.2604    4.9562   -1.1623 O.2       1 ACP        -0.8588
     11 O2A         7.0039    2.5730   -0.3599 O.3       1 ACP        -0.8037
     12 O3A         5.4243    2.7667   -2.3434 O.3       1 ACP        -0.7988
     13 O5'         4.5673    3.2930   -0.0211 O.3       1 ACP        -0.5960
     14 C5'         4.0922    1.9801    0.2227 C.3       1 ACP         0.1917
     15 C4'         2.5944    2.0310    0.4653 C.3       1 ACP         0.0908
     16 O4'         1.9327    2.5740   -0.6889 O.3       1 ACP        -0.4111
     17 C3'         1.9685    0.6634    0.6767 C.3       1 ACP         0.0927
     18 O3'         2.1425    0.1975    1.9977 O.3       1 ACP        -0.6127
     19 C2'         0.5176    0.9128    0.3099 C.3       1 ACP         0.1095
     20 O2'        -0.2103    1.4454    1.4152 O.3       1 ACP        -0.5953
     21 C1'         0.6219    1.9765   -0.7844 C.3       1 ACP         0.4273
     22 N9          0.4237    1.4496   -2.1357 N.pl3     1 ACP        -0.6934
     23 C8          0.7352    0.1857   -2.5616 C.ar      1 ACP         0.5422
     24 N7          0.4386    0.0025   -3.8312 N.2       1 ACP        -0.5596
     25 C5         -0.0877    1.2002   -4.2458 C.ar      1 ACP        -0.2259
     26 C6         -0.5826    1.6331   -5.4719 C.ar      1 ACP         0.7526
     27 N6         -0.6027    0.7720   -6.5824 N.pl3     1 ACP        -0.9660
     28 N1         -1.0479    2.9006   -5.5841 N.ar      1 ACP        -0.8027
     29 C2         -1.0031    3.6836   -4.4792 C.ar      1 ACP         0.6758
     30 N3         -0.5493    3.3800   -3.2436 N.ar      1 ACP        -0.7221
     31 C4         -0.1057    2.1146   -3.2048 C.ar      1 ACP         0.5858
     32 HOG2        2.1967   -0.4989   -5.4050 H         1 ACP         0.4705
     33 HOG3        2.7178    1.3276   -2.9140 H         1 ACP         0.4705
     34 H3B1        5.2960    1.7463   -5.7622 H         1 ACP         0.1189
     35 H3B2        4.1308    2.6087   -4.7625 H         1 ACP         0.1189
     36 HOA2        7.3696    2.7861    0.5250 H         1 ACP         0.4679
     37 H5'1        4.3175    1.3541   -0.6468 H         1 ACP         0.0587
     38 H5'2        4.6079    1.5730    1.0985 H         1 ACP         0.0587
     39 H4'         2.3752    2.7029    1.3156 H         1 ACP         0.0938
     40 H3'         2.4336   -0.1217   -0.0016 H         1 ACP         0.0597
     41 HO3'        1.7160   -0.6716    2.0397 H         1 ACP         0.4554
     42 H2'         0.0316    0.0155   -0.0339 H         1 ACP         0.0710
     43 HO2'       -0.1608    0.7921    2.1351 H         1 ACP         0.4360
     44 H1'        -0.1474    2.7798   -0.6651 H         1 ACP         0.1247
     45 H8          1.1731   -0.5535   -1.9047 H         1 ACP         0.0875
     46 HN61       -0.2130   -0.1479   -6.4999 H         1 ACP         0.4433
     47 HN62       -0.9195    1.1179   -7.4683 H         1 ACP         0.4433
     48 H2         -1.3833    4.6919   -4.6052 H         1 ACP         0.0459
@<TRIPOS>BOND
     1    1    2 2
     2    1    3 1
     3    1    4 1
     4    1    8 1
     5    3   32 1
     6    4   33 1
     7    5    6 2
     8    5    7 1
     9    5    8 1
    10    5   12 1
    11    8   34 1
    12    8   35 1
    13    9   10 2
    14    9   11 1
    15    9   12 1
    16    9   13 1
    17   11   36 1
    18   13   14 1
    19   14   15 1
    20   14   37 1
    21   14   38 1
    22   15   16 1
    23   15   17 1
    24   15   39 1
    25   16   21 1
    26   17   18 1
    27   17   19 1
    28   17   40 1
    29   18   41 1
    30   19   20 1
    31   19   21 1
    32   19   42 1
    33   20   43 1
    34   21   22 1
    35   21   44 1
    36   22   23 ar
    37   22   31 ar
    38   23   24 ar
    39   23   45 1
    40   24   25 ar
    41   25   26 ar
    42   25   31 ar
    43   26   27 1
    44   26   28 ar
    45   27   46 1
    46   27   47 1
    47   28   29 ar
    48   29   30 ar
    49   29   48 1
    50   30   31 ar
@<TRIPOS>SUBSTRUCTURE
     1 ACP         1 GROUP 0 A     ****
@<TRIPOS>MOLECULE
[[5-(6-aminopurin-9-yl)-3,4-dihydroxy-tetrahydrofuran-2-yl]methoxy-hydroxy-phosphoryl]oxy-(phosphonomethyl)phosphinate
   48    50     1     0     0
SMALL
USER_CHARGES

@<TRIPOS>ATOM
      1 PG         -2.0966    2.2197   -2.6716 P.3       1 ACP         1.6292
      2 O1G        -1.2970    3.4066   -2.2253 O.2       1 ACP        -0.8674
      3 O2G        -2.2854    2.0691   -4.2690 O.3       1 ACP        -0.7977
      4 O3G        -1.5145    0.7820   -2.2199 O.3       1 ACP        -0.7977
      5 PB         -4.1884    2.1572   -0.2419 P.3       1 ACP         1.4910
      6 O1B        -3.5634    0.9062    0.3306 O.co2     1 ACP        -0.8292
      7 O2B        -5.6624    2.4587   -0.1008 O.co2     1 ACP        -0.8292
      8 C3B        -3.7929    2.1892   -2.0486 C.3       1 ACP        -0.6453
      9 PA         -2.9682    4.0282    1.6825 P.3       1 ACP         1.7996
     10 O1A        -4.1668    4.4027    2.5051 O.2       1 ACP        -0.8588
     11 O2A        -1.9512    5.2515    1.3883 O.3       1 ACP        -0.8037
     12 O3A        -3.3154    3.4582    0.2093 O.3       1 ACP        -0.7988
     13 O5'        -2.0397    2.8622    2.3121 O.3       1 ACP        -0.5960
     14 C5'        -0.8811    2.4285    1.6206 C.3       1 ACP         0.1917
     15 C4'        -0.1994    1.3333    2.4288 C.3       1 ACP         0.0908
     16 O4'        -1.1285    0.2356    2.5840 O.3       1 ACP        -0.4111
     17 C3'         1.0324    0.7610    1.7344 C.3       1 ACP         0.0927
     18 O3'         1.9175    0.2377    2.7247 O.3       1 ACP        -0.6127
     19 C2'         0.4468   -0.3802    0.9263 C.3       1 ACP         0.1095
     20 O2'         1.3993   -1.3703    0.5961 O.3       1 ACP        -0.5953
     21 C1'        -0.6159   -0.9100    1.8769 C.3       1 ACP         0.4273
     22 N9         -1.7127   -1.6108    1.2130 N.pl3     1 ACP        -0.6934
     23 C8         -2.1695   -1.3735   -0.0564 C.ar      1 ACP         0.5422
     24 N7         -3.1688   -2.1671   -0.3806 N.2       1 ACP        -0.5596
     25 C5         -3.3683   -2.9522    0.7270 C.ar      1 ACP        -0.2259
     26 C6         -4.2717   -3.9738    1.0025 C.ar      1 ACP         0.7526
     27 N6         -5.2165   -4.3746    0.0423 N.pl3     1 ACP        -0.9660
     28 N1         -4.2302   -4.5815    2.2126 N.ar      1 ACP        -0.8027
     29 C2         -3.2974   -4.1522    3.0967 C.ar      1 ACP         0.6758
     30 N3         -2.3737   -3.1778    2.9472 N.ar      1 ACP        -0.7221
     31 C4         -2.4717   -2.6214    1.7306 C.ar      1 ACP         0.5858
     32 HOG2       -2.8002    1.3103   -4.6175 H         1 ACP         0.4705
     33 HOG3       -0.6162    0.5193   -2.5138 H         1 ACP         0.4705
     34 H3B1       -4.2991    3.0734   -2.4522 H         1 ACP         0.1189
     35 H3B2       -4.2883    1.3128   -2.4817 H         1 ACP         0.1189
     36 HOA2       -1.5318    5.7121    2.1460 H         1 ACP         0.4679
     37 H5'1       -1.1760    2.0499    0.6365 H         1 ACP         0.0587
     38 H5'2       -0.2073    3.2811    1.4873 H         1 ACP         0.0587
     39 H4'         0.0402    1.7079    3.4342 H         1 ACP         0.0938
     40 H3'         1.5907    1.4859    1.1353 H         1 ACP         0.0597
     41 HO3'        2.6839   -0.1150    2.2479 H         1 ACP         0.4554
     42 H2'        -0.0017    0.0018    0.0005 H         1 ACP         0.0710
     43 HO2'        0.9369   -2.0558    0.0825 H         1 ACP         0.4360
     44 H1'        -0.1998   -1.6319    2.6178 H         1 ACP         0.1247
     45 H8         -1.7364   -0.6145   -0.6934 H         1 ACP         0.0875
     46 HN61       -5.2686   -3.8865   -0.8317 H         1 ACP         0.4433
     47 HN62       -5.8889   -5.0800    0.2773 H         1 ACP         0.4433
     48 H2         -3.2930   -4.6606    4.0551 H         1 ACP         0.0459
@<TRIPOS>BOND
     1    1    2 2
     2    1    3 1
     3    1    4 1
     4    1    8 1
     5    3   32 1
     6    4   33 1
     7    5    6 2
     8    5    7 1
     9    5    8 1
    10    5   12 1
    11    8   34 1
    12    8   35 1
    13    9   10 2
    14    9   11 1
    15    9   12 1
    16    9   13 1
    17   11   36 1
    18   13   14 1
    19   14   15 1
    20   14   37 1
    21   14   38 1
    22   15   16 1
    23   15   17 1
    24   15   39 1
    25   16   21 1
    26   17   18 1
    27   17   19 1
    28   17   40 1
    29   18   41 1
    30   19   20 1
    31   19   21 1
    32   19   42 1
    33   20   43 1
    34   21   22 1
    35   21   44 1
    36   22   23 ar
    37   22   31 ar
    38   23   24 ar
    39   23   45 1
    40   24   25 ar
    41   25   26 ar
    42   25   31 ar
    43   26   27 1
    44   26   28 ar
    45   27   46 1
    46   27   47 1
    47   28   29 ar
    48   29   30 ar
    49   29   48 1
    50   30   31 ar
@<TRIPOS>SUBSTRUCTURE
     1 ACP         1 GROUP 0 A     ****
@<TRIPOS>MOLECULE
[[5-(6-aminopurin-9-yl)-3,4-dihydroxy-tetrahydrofuran-2-yl]methoxy-hydroxy-phosphoryl]oxy-(phosphonomethyl)phosphinate
   48    50     1     0     0
SMALL
USER_CHARGES

@<TRIPOS>ATOM
      1 PG         -5.2420    3.5638   -2.3240 P.3       1 ACP         1.6292
      2 O1G        -5.2360    3.1378   -3.7613 O.2       1 ACP        -0.8674
      3 O2G        -4.3256    4.8478   -1.9753 O.3       1 ACP        -0.7977
      4 O3G        -6.6896    3.9547   -1.7229 O.3       1 ACP        -0.7977
      5 PB         -4.5579    2.5876    0.6529 P.3       1 ACP         1.4910
      6 O1B        -4.0168    1.3218    1.2763 O.co2     1 ACP        -0.8292
      7 O2B        -5.8752    3.1950    1.0764 O.co2     1 ACP        -0.8292
      8 C3B        -4.6468    2.3041   -1.1728 C.3       1 ACP        -0.6453
      9 PA         -2.5920    4.4092    1.8816 P.3       1 ACP         1.7996
     10 O1A        -3.4579    5.1208    2.8804 O.2       1 ACP        -0.8588
     11 O2A        -1.5023    5.3543    1.1490 O.3       1 ACP        -0.8037
     12 O3A        -3.3985    3.7339    0.6531 O.3       1 ACP        -0.7988
     13 O5'        -1.7334    3.1724    2.4742 O.3       1 ACP        -0.5960
     14 C5'        -0.8811    2.4285    1.6206 C.3       1 ACP         0.1917
     15 C4'        -0.1994    1.3333    2.4288 C.3       1 ACP         0.0908
     16 O4'        -1.1285    0.2356    2.5840 O.3       1 ACP        -0.4111
     17 C3'         1.0324    0.7610    1.7344 C.3       1 ACP         0.0927
     18 O3'         1.9175    0.2377    2.7247 O.3       1 ACP        -0.6127
     19 C2'         0.4468   -0.3802    0.9263 C.3       1 ACP         0.1095
     20 O2'         1.3993   -1.3703    0.5961 O.3       1 ACP        -0.5953
     21 C1'        -0.6159   -0.9100    1.8769 C.3       1 ACP         0.4273
     22 N9         -1.7127   -1.6108    1.2130 N.pl3     1 ACP        -0.6934
     23 C8         -3.0342   -1.2519    1.2439 C.ar      1 ACP         0.5422
     24 N7         -3.7886   -2.0756    0.5467 N.2       1 ACP        -0.5596
     25 C5         -2.9179   -3.0087    0.0426 C.ar      1 ACP        -0.2259
     26 C6         -3.1045   -4.1262   -0.7649 C.ar      1 ACP         0.7526
     27 N6         -4.3870   -4.4763   -1.2206 N.pl3     1 ACP        -0.9660
     28 N1         -2.0306   -4.8769   -1.1094 N.ar      1 ACP        -0.8027
     29 C2         -0.8199   -4.4895   -0.6402 C.ar      1 ACP         0.6758
     30 N3         -0.5140   -3.4335    0.1448 N.ar      1 ACP        -0.7221
     31 C4         -1.6202   -2.7371    0.4460 C.ar      1 ACP         0.5858
     32 HOG2       -4.2919    5.1704   -1.0495 H         1 ACP         0.4705
     33 HOG3       -7.1924    4.6898   -2.1343 H         1 ACP         0.4705
     34 H3B1       -5.2790    1.4195   -1.3098 H         1 ACP         0.1189
     35 H3B2       -3.6342    2.0236   -1.4845 H         1 ACP         0.1189
     36 HOA2       -0.8312    5.8158    1.6955 H         1 ACP         0.4679
     37 H5'1       -1.4795    1.9921    0.8142 H         1 ACP         0.0587
     38 H5'2       -0.1362    3.1035    1.1868 H         1 ACP         0.0587
     39 H4'         0.0402    1.7079    3.4342 H         1 ACP         0.0938
     40 H3'         1.5907    1.4859    1.1353 H         1 ACP         0.0597
     41 HO3'        2.6839   -0.1150    2.2479 H         1 ACP         0.4554
     42 H2'        -0.0017    0.0018    0.0005 H         1 ACP         0.0710
     43 HO2'        2.0953   -0.9375    0.0709 H         1 ACP         0.4360
     44 H1'        -0.1998   -1.6319    2.6178 H         1 ACP         0.1247
     45 H8         -3.3847   -0.3852    1.7876 H         1 ACP         0.0875
     46 HN61       -5.1798   -3.9409   -0.9211 H         1 ACP         0.4433
     47 HN62       -4.5065   -5.3114   -1.7621 H         1 ACP         0.4433
     48 H2          0.0171   -5.1133   -0.9354 H         1 ACP         0.0459
@<TRIPOS>BOND
     1    1    2 2
     2    1    3 1
     3    1    4 1
     4    1    8 1
     5    3   32 1
     6    4   33 1
     7    5    6 2
     8    5    7 1
     9    5    8 1
    10    5   12 1
    11    8   34 1
    12    8   35 1
    13    9   10 2
    14    9   11 1
    15    9   12 1
    16    9   13 1
    17   11   36 1
    18   13   14 1
    19   14   15 1
    20   14   37 1
    21   14   38 1
    22   15   16 1
    23   15   17 1
    24   15   39 1
    25   16   21 1
    26   17   18 1
    27   17   19 1
    28   17   40 1
    29   18   41 1
    30   19   20 1
    31   19   21 1
    32   19   42 1
    33   20   43 1
    34   21   22 1
    35   21   44 1
    36   22   23 ar
    37   22   31 ar
    38   23   24 ar
    39   23   45 1
    40   24   25 ar
    41   25   26 ar
    42   25   31 ar
    43   26   27 1
    44   26   28 ar
    45   27   46 1
    46   27   47 1
    47   28   29 ar
    48   29   30 ar
    49   29   48 1
    50   30   31 ar
@<TRIPOS>SUBSTRUCTURE
     1 ACP         1 GROUP 0 A     ****
@<TRIPOS>MOLECULE
[[5-(6-aminopurin-9-yl)-3,4-dihydroxy-tetrahydrofuran-2-yl]methoxy-hydroxy-phosphoryl]oxy-(phosphonomethyl)phosphinate
   48    50     1     0     0
SMALL
USER_CHARGES

@<TRIPOS>ATOM
      1 PG          6.1589    0.4274   -3.4191 P.3       1 ACP         1.6292
      2 O1G         6.6207   -0.0718   -2.0831 O.2       1 ACP        -0.8674
      3 O2G         6.7605   -0.3532   -4.6992 O.3       1 ACP        -0.7977
      4 O3G         4.5623    0.3827   -3.6617 O.3       1 ACP        -0.7977
      5 PB          5.9795    3.5445   -2.6880 P.3       1 ACP         1.4910
      6 O1B         4.4689    3.5175   -2.7220 O.co2     1 ACP        -0.8292
      7 O2B         6.7722    4.7729   -3.0703 O.co2     1 ACP        -0.8292
      8 C3B         6.5759    2.1541   -3.7522 C.3       1 ACP        -0.6453
      9 PA          6.2292    3.5136    0.2496 P.3       1 ACP         1.7996
     10 O1A         6.6927    4.9186    0.5045 O.2       1 ACP        -0.8588
     11 O2A         6.9320    2.3979    1.1869 O.3       1 ACP        -0.8037
     12 O3A         6.5026    2.9775   -1.2516 O.3       1 ACP        -0.7988
     13 O5'         4.6408    3.2691    0.4376 O.3       1 ACP        -0.5960
     14 C5'         4.0922    1.9801    0.2227 C.3       1 ACP         0.1917
     15 C4'         2.5944    2.0310    0.4653 C.3       1 ACP         0.0908
     16 O4'         1.9327    2.5740   -0.6889 O.3       1 ACP        -0.4111
     17 C3'         1.9685    0.6634    0.6767 C.3       1 ACP         0.0927
     18 O3'         2.1425    0.1975    1.9977 O.3       1 ACP        -0.6127
     19 C2'         0.5176    0.9128    0.3099 C.3       1 ACP         0.1095
     20 O2'        -0.2103    1.4454    1.4152 O.3       1 ACP        -0.5953
     21 C1'         0.6219    1.9765   -0.7844 C.3       1 ACP         0.4273
     22 N9          0.4237    1.4496   -2.1357 N.pl3     1 ACP        -0.6934
     23 C8         -0.5566    1.8304   -3.0133 C.ar      1 ACP         0.5422
     24 N7         -0.4788    1.1815   -4.1563 N.2       1 ACP        -0.5596
     25 C5          0.5985    0.3438   -4.0126 C.ar      1 ACP        -0.2259
     26 C6          1.1840   -0.5863   -4.8658 C.ar      1 ACP         0.7526
     27 N6          0.6656   -0.8050   -6.1536 N.pl3     1 ACP        -0.9660
     28 N1          2.2653   -1.2823   -4.4393 N.ar      1 ACP        -0.8027
     29 C2          2.7197   -1.0279   -3.1884 C.ar      1 ACP         0.6758
     30 N3          2.2404   -0.1568   -2.2739 N.ar      1 ACP        -0.7221
     31 C4          1.1743    0.4954   -2.7613 C.ar      1 ACP         0.5858
     32 HOG2        6.5884   -1.3143   -4.7940 H         1 ACP         0.4705
     33 HOG3        4.2027    0.6972   -4.5185 H         1 ACP         0.4705
     34 H3B1        7.6694    2.2253   -3.7560 H         1 ACP         0.1189
     35 H3B2        6.2379    2.3854   -4.7688 H         1 ACP         0.1189
     36 HOA2        6.8297    2.4637    2.1603 H         1 ACP         0.4679
     37 H5'1        4.3024    1.6721   -0.8067 H         1 ACP         0.0587
     38 H5'2        4.5673    1.2730    0.9105 H         1 ACP         0.0587
     39 H4'         2.3752    2.7029    1.3156 H         1 ACP         0.0938
     40 H3'         2.4336   -0.1217   -0.0016 H         1 ACP         0.0597
     41 HO3'        1.7160   -0.6716    2.0397 H         1 ACP         0.4554
     42 H2'         0.0316    0.0155   -0.0339 H         1 ACP         0.0710
     43 HO2'       -0.1608    0.7921    2.1351 H         1 ACP         0.4360
     44 H1'        -0.1474    2.7798   -0.6651 H         1 ACP         0.1247
     45 H8         -1.2942    2.5813   -2.7649 H         1 ACP         0.0875
     46 HN61       -0.1624   -0.3184   -6.4408 H         1 ACP         0.4433
     47 HN62        1.0729   -1.5128   -6.7350 H         1 ACP         0.4433
     48 H2          3.5863   -1.6031   -2.8800 H         1 ACP         0.0459
@<TRIPOS>BOND
     1    1    2 2
     2    1    3 1
     3    1    4 1
     4    1    8 1
     5    3   32 1
     6    4   33 1
     7    5    6 2
     8    5    7 1
     9    5    8 1
    10    5   12 1
    11    8   34 1
    12    8   35 1
    13    9   10 2
    14    9   11 1
    15    9   12 1
    16    9   13 1
    17   11   36 1
    18   13   14 1
    19   14   15 1
    20   14   37 1
    21   14   38 1
    22   15   16 1
    23   15   17 1
    24   15   39 1
    25   16   21 1
    26   17   18 1
    27   17   19 1
    28   17   40 1
    29   18   41 1
    30   19   20 1
    31   19   21 1
    32   19   42 1
    33   20   43 1
    34   21   22 1
    35   21   44 1
    36   22   23 ar
    37   22   31 ar
    38   23   24 ar
    39   23   45 1
    40   24   25 ar
    41   25   26 ar
    42   25   31 ar
    43   26   27 1
    44   26   28 ar
    45   27   46 1
    46   27   47 1
    47   28   29 ar
    48   29   30 ar
    49   29   48 1
    50   30   31 ar
@<TRIPOS>SUBSTRUCTURE
     1 ACP         1 GROUP 0 A     ****
